<?xml version="1.0"?>
<!-- generated on 2018-10-09 12:13:47.060551 by $Id$ -->
<additional>

<vTypeDistribution id="vTypeDist">
<vType id="car0_0" accel="2.60" decel="4.00" sigma="0.35" length="4.00" minGap="1.00" maxSpeed="13.41" vClass="passenger" guiShape="passenger" probability="0.001" />
<vType id="car0_1" accel="2.60" decel="4.00" sigma="0.35" length="4.00" minGap="1.00" maxSpeed="13.41" vClass="passenger" guiShape="passenger" probability="0.001" />
<vType id="car0_2" accel="2.60" decel="4.00" sigma="0.35" length="4.00" minGap="1.00" maxSpeed="13.41" vClass="passenger" guiShape="passenger" probability="0.001" />
<vType id="car0_3" accel="2.60" decel="4.00" sigma="0.35" length="4.00" minGap="1.00" maxSpeed="13.41" vClass="passenger" guiShape="passenger" probability="0.001" />
<vType id="car0_4" accel="2.60" decel="4.00" sigma="0.35" length="4.00" minGap="1.00" maxSpeed="13.41" vClass="passenger" guiShape="passenger" probability="0.001" />
<vType id="car0_5" accel="2.60" decel="4.00" sigma="0.35" length="4.00" minGap="1.00" maxSpeed="13.41" vClass="passenger" guiShape="passenger" probability="0.001" />
<vType id="car0_6" accel="2.60" decel="4.00" sigma="0.35" length="4.00" minGap="1.00" maxSpeed="13.41" vClass="passenger" guiShape="passenger" probability="0.001" />
<vType id="car0_7" accel="2.60" decel="4.00" sigma="0.35" length="4.00" minGap="1.00" maxSpeed="13.41" vClass="passenger" guiShape="passenger" probability="0.001" />
<vType id="car0_8" accel="2.60" decel="4.00" sigma="0.35" length="4.00" minGap="1.00" maxSpeed="13.41" vClass="passenger" guiShape="passenger" probability="0.001" />
<vType id="car0_9" accel="2.60" decel="4.00" sigma="0.35" length="4.00" minGap="1.00" maxSpeed="13.41" vClass="passenger" guiShape="passenger" probability="0.001" />
<vType id="car0_10" accel="2.60" decel="4.00" sigma="0.35" length="4.00" minGap="1.00" maxSpeed="13.41" vClass="passenger" guiShape="passenger" probability="0.001" />
<vType id="car0_11" accel="2.60" decel="4.00" sigma="0.35" length="4.00" minGap="1.00" maxSpeed="13.41" vClass="passenger" guiShape="passenger" probability="0.001" />
<vType id="car0_12" accel="2.60" decel="4.00" sigma="0.35" length="4.00" minGap="1.00" maxSpeed="13.41" vClass="passenger" guiShape="passenger" probability="0.001" />
<vType id="car0_13" accel="2.60" decel="4.00" sigma="0.35" length="4.00" minGap="1.00" maxSpeed="13.41" vClass="passenger" guiShape="passenger" probability="0.001" />
<vType id="car0_14" accel="2.60" decel="4.00" sigma="0.35" length="4.00" minGap="1.00" maxSpeed="13.41" vClass="passenger" guiShape="passenger" probability="0.001" />
<vType id="car0_15" accel="2.60" decel="4.00" sigma="0.35" length="4.00" minGap="1.00" maxSpeed="13.41" vClass="passenger" guiShape="passenger" probability="0.001" />
<vType id="car0_16" accel="2.60" decel="4.00" sigma="0.35" length="4.00" minGap="1.00" maxSpeed="13.41" vClass="passenger" guiShape="passenger" probability="0.001" />
<vType id="car0_17" accel="2.60" decel="4.00" sigma="0.35" length="4.00" minGap="1.00" maxSpeed="13.41" vClass="passenger" guiShape="passenger" probability="0.001" />
<vType id="car0_18" accel="2.60" decel="4.00" sigma="0.35" length="4.00" minGap="1.00" maxSpeed="13.41" vClass="passenger" guiShape="passenger" probability="0.001" />
<vType id="car0_19" accel="2.60" decel="4.00" sigma="0.35" length="4.00" minGap="1.00" maxSpeed="13.41" vClass="passenger" guiShape="passenger" probability="0.001" />
<vType id="car0_20" accel="2.60" decel="4.00" sigma="0.35" length="4.00" minGap="1.00" maxSpeed="13.41" vClass="passenger" guiShape="passenger" probability="0.001" />
<vType id="car0_21" accel="2.60" decel="4.00" sigma="0.35" length="4.00" minGap="1.00" maxSpeed="13.41" vClass="passenger" guiShape="passenger" probability="0.001" />
<vType id="car0_22" accel="2.60" decel="4.00" sigma="0.35" length="4.00" minGap="1.00" maxSpeed="13.41" vClass="passenger" guiShape="passenger" probability="0.001" />
<vType id="car0_23" accel="2.60" decel="4.00" sigma="0.35" length="4.00" minGap="1.00" maxSpeed="13.41" vClass="passenger" guiShape="passenger" probability="0.001" />
<vType id="car0_24" accel="2.60" decel="4.00" sigma="0.35" length="4.00" minGap="1.00" maxSpeed="13.41" vClass="passenger" guiShape="passenger" probability="0.001" />
<vType id="car0_25" accel="2.60" decel="4.00" sigma="0.35" length="4.00" minGap="1.00" maxSpeed="13.41" vClass="passenger" guiShape="passenger" probability="0.001" />
<vType id="car0_26" accel="2.60" decel="4.00" sigma="0.35" length="4.00" minGap="1.00" maxSpeed="13.41" vClass="passenger" guiShape="passenger" probability="0.001" />
<vType id="car0_27" accel="2.60" decel="4.00" sigma="0.35" length="4.00" minGap="1.00" maxSpeed="13.41" vClass="passenger" guiShape="passenger" probability="0.001" />
<vType id="car0_28" accel="2.60" decel="4.00" sigma="0.35" length="4.00" minGap="1.00" maxSpeed="13.41" vClass="passenger" guiShape="passenger" probability="0.001" />
<vType id="car0_29" accel="2.60" decel="4.00" sigma="0.35" length="4.00" minGap="1.00" maxSpeed="13.41" vClass="passenger" guiShape="passenger" probability="0.001" />
<vType id="car0_30" accel="2.60" decel="4.00" sigma="0.35" length="4.00" minGap="1.00" maxSpeed="13.41" vClass="passenger" guiShape="passenger" probability="0.001" />
<vType id="car0_31" accel="2.60" decel="4.00" sigma="0.35" length="4.00" minGap="1.00" maxSpeed="13.41" vClass="passenger" guiShape="passenger" probability="0.001" />
<vType id="car0_32" accel="2.60" decel="4.00" sigma="0.35" length="4.00" minGap="1.00" maxSpeed="13.41" vClass="passenger" guiShape="passenger" probability="0.001" />
<vType id="car0_33" accel="2.60" decel="4.00" sigma="0.35" length="4.00" minGap="1.00" maxSpeed="13.41" vClass="passenger" guiShape="passenger" probability="0.001" />
<vType id="car0_34" accel="2.60" decel="4.00" sigma="0.35" length="4.00" minGap="1.00" maxSpeed="13.41" vClass="passenger" guiShape="passenger" probability="0.001" />
<vType id="car0_35" accel="2.60" decel="4.00" sigma="0.35" length="4.00" minGap="1.00" maxSpeed="13.41" vClass="passenger" guiShape="passenger" probability="0.001" />
<vType id="car0_36" accel="2.60" decel="4.00" sigma="0.35" length="4.00" minGap="1.00" maxSpeed="13.41" vClass="passenger" guiShape="passenger" probability="0.001" />
<vType id="car0_37" accel="2.60" decel="4.00" sigma="0.35" length="4.00" minGap="1.00" maxSpeed="13.41" vClass="passenger" guiShape="passenger" probability="0.001" />
<vType id="car0_38" accel="2.60" decel="4.00" sigma="0.35" length="4.00" minGap="1.00" maxSpeed="13.41" vClass="passenger" guiShape="passenger" probability="0.001" />
<vType id="car0_39" accel="2.60" decel="4.00" sigma="0.35" length="4.00" minGap="1.00" maxSpeed="13.41" vClass="passenger" guiShape="passenger" probability="0.001" />
<vType id="car0_40" accel="2.60" decel="4.00" sigma="0.35" length="4.00" minGap="1.00" maxSpeed="13.41" vClass="passenger" guiShape="passenger" probability="0.001" />
<vType id="car0_41" accel="2.60" decel="4.00" sigma="0.35" length="4.00" minGap="1.00" maxSpeed="13.41" vClass="passenger" guiShape="passenger" probability="0.001" />
<vType id="car0_42" accel="2.60" decel="4.00" sigma="0.35" length="4.00" minGap="1.00" maxSpeed="13.41" vClass="passenger" guiShape="passenger" probability="0.001" />
<vType id="car0_43" accel="2.60" decel="4.00" sigma="0.35" length="4.00" minGap="1.00" maxSpeed="13.41" vClass="passenger" guiShape="passenger" probability="0.001" />
<vType id="car0_44" accel="2.60" decel="4.00" sigma="0.35" length="4.00" minGap="1.00" maxSpeed="13.41" vClass="passenger" guiShape="passenger" probability="0.001" />
<vType id="car0_45" accel="2.60" decel="4.00" sigma="0.35" length="4.00" minGap="1.00" maxSpeed="13.41" vClass="passenger" guiShape="passenger" probability="0.001" />
<vType id="car0_46" accel="2.60" decel="4.00" sigma="0.35" length="4.00" minGap="1.00" maxSpeed="13.41" vClass="passenger" guiShape="passenger" probability="0.001" />
<vType id="car0_47" accel="2.60" decel="4.00" sigma="0.35" length="4.00" minGap="1.00" maxSpeed="13.41" vClass="passenger" guiShape="passenger" probability="0.001" />
<vType id="car0_48" accel="2.60" decel="4.00" sigma="0.35" length="4.00" minGap="1.00" maxSpeed="13.41" vClass="passenger" guiShape="passenger" probability="0.001" />
<vType id="car0_49" accel="2.60" decel="4.00" sigma="0.35" length="4.00" minGap="1.00" maxSpeed="13.41" vClass="passenger" guiShape="passenger" probability="0.001" />
<vType id="car0_50" accel="2.60" decel="4.00" sigma="0.35" length="4.00" minGap="1.00" maxSpeed="13.41" vClass="passenger" guiShape="passenger" probability="0.001" />
<vType id="car0_51" accel="2.60" decel="4.00" sigma="0.35" length="4.00" minGap="1.00" maxSpeed="13.41" vClass="passenger" guiShape="passenger" probability="0.001" />
<vType id="car0_52" accel="2.60" decel="4.00" sigma="0.35" length="4.00" minGap="1.00" maxSpeed="13.41" vClass="passenger" guiShape="passenger" probability="0.001" />
<vType id="car0_53" accel="2.60" decel="4.00" sigma="0.35" length="4.00" minGap="1.00" maxSpeed="13.41" vClass="passenger" guiShape="passenger" probability="0.001" />
<vType id="car0_54" accel="2.60" decel="4.00" sigma="0.35" length="4.00" minGap="1.00" maxSpeed="13.41" vClass="passenger" guiShape="passenger" probability="0.001" />
<vType id="car0_55" accel="2.60" decel="4.00" sigma="0.35" length="4.00" minGap="1.00" maxSpeed="13.41" vClass="passenger" guiShape="passenger" probability="0.001" />
<vType id="car0_56" accel="2.60" decel="4.00" sigma="0.35" length="4.00" minGap="1.00" maxSpeed="13.41" vClass="passenger" guiShape="passenger" probability="0.001" />
<vType id="car0_57" accel="2.60" decel="4.00" sigma="0.35" length="4.00" minGap="1.00" maxSpeed="13.41" vClass="passenger" guiShape="passenger" probability="0.001" />
<vType id="car0_58" accel="2.60" decel="4.00" sigma="0.35" length="4.00" minGap="1.00" maxSpeed="13.41" vClass="passenger" guiShape="passenger" probability="0.001" />
<vType id="car0_59" accel="2.60" decel="4.00" sigma="0.35" length="4.00" minGap="1.00" maxSpeed="13.41" vClass="passenger" guiShape="passenger" probability="0.001" />
<vType id="car0_60" accel="2.60" decel="4.00" sigma="0.35" length="4.00" minGap="1.00" maxSpeed="13.41" vClass="passenger" guiShape="passenger" probability="0.001" />
<vType id="car0_61" accel="2.60" decel="4.00" sigma="0.35" length="4.00" minGap="1.00" maxSpeed="13.41" vClass="passenger" guiShape="passenger" probability="0.001" />
<vType id="car0_62" accel="2.60" decel="4.00" sigma="0.35" length="4.00" minGap="1.00" maxSpeed="13.41" vClass="passenger" guiShape="passenger" probability="0.001" />
<vType id="car0_63" accel="2.60" decel="4.00" sigma="0.35" length="4.00" minGap="1.00" maxSpeed="13.41" vClass="passenger" guiShape="passenger" probability="0.001" />
<vType id="car0_64" accel="2.60" decel="4.00" sigma="0.35" length="4.00" minGap="1.00" maxSpeed="13.41" vClass="passenger" guiShape="passenger" probability="0.001" />
<vType id="car0_65" accel="2.60" decel="4.00" sigma="0.35" length="4.00" minGap="1.00" maxSpeed="13.41" vClass="passenger" guiShape="passenger" probability="0.001" />
<vType id="car0_66" accel="2.60" decel="4.00" sigma="0.35" length="4.00" minGap="1.00" maxSpeed="13.41" vClass="passenger" guiShape="passenger" probability="0.001" />
<vType id="car0_67" accel="2.60" decel="4.00" sigma="0.35" length="4.00" minGap="1.00" maxSpeed="13.41" vClass="passenger" guiShape="passenger" probability="0.001" />
<vType id="car0_68" accel="2.60" decel="4.00" sigma="0.35" length="4.00" minGap="1.00" maxSpeed="13.41" vClass="passenger" guiShape="passenger" probability="0.001" />
<vType id="car0_69" accel="2.60" decel="4.00" sigma="0.35" length="4.00" minGap="1.00" maxSpeed="13.41" vClass="passenger" guiShape="passenger" probability="0.001" />
<vType id="car0_70" accel="2.60" decel="4.00" sigma="0.35" length="4.00" minGap="1.00" maxSpeed="13.41" vClass="passenger" guiShape="passenger" probability="0.001" />
<vType id="car0_71" accel="2.60" decel="4.00" sigma="0.35" length="4.00" minGap="1.00" maxSpeed="13.41" vClass="passenger" guiShape="passenger" probability="0.001" />
<vType id="car0_72" accel="2.60" decel="4.00" sigma="0.35" length="4.00" minGap="1.00" maxSpeed="13.41" vClass="passenger" guiShape="passenger" probability="0.001" />
<vType id="car0_73" accel="2.60" decel="4.00" sigma="0.35" length="4.00" minGap="1.00" maxSpeed="13.41" vClass="passenger" guiShape="passenger" probability="0.001" />
<vType id="car0_74" accel="2.60" decel="4.00" sigma="0.35" length="4.00" minGap="1.00" maxSpeed="13.41" vClass="passenger" guiShape="passenger" probability="0.001" />
<vType id="car0_75" accel="2.60" decel="4.00" sigma="0.35" length="4.00" minGap="1.00" maxSpeed="13.41" vClass="passenger" guiShape="passenger" probability="0.001" />
<vType id="car0_76" accel="2.60" decel="4.00" sigma="0.35" length="4.00" minGap="1.00" maxSpeed="13.41" vClass="passenger" guiShape="passenger" probability="0.001" />
<vType id="car0_77" accel="2.60" decel="4.00" sigma="0.35" length="4.00" minGap="1.00" maxSpeed="13.41" vClass="passenger" guiShape="passenger" probability="0.001" />
<vType id="car0_78" accel="2.60" decel="4.00" sigma="0.35" length="4.00" minGap="1.00" maxSpeed="13.41" vClass="passenger" guiShape="passenger" probability="0.001" />
<vType id="car0_79" accel="2.60" decel="4.00" sigma="0.35" length="4.00" minGap="1.00" maxSpeed="13.41" vClass="passenger" guiShape="passenger" probability="0.001" />
<vType id="car0_80" accel="2.60" decel="4.00" sigma="0.35" length="4.00" minGap="1.00" maxSpeed="13.41" vClass="passenger" guiShape="passenger" probability="0.001" />
<vType id="car0_81" accel="2.60" decel="4.00" sigma="0.35" length="4.00" minGap="1.00" maxSpeed="13.41" vClass="passenger" guiShape="passenger" probability="0.001" />
<vType id="car0_82" accel="2.60" decel="4.00" sigma="0.35" length="4.00" minGap="1.00" maxSpeed="13.41" vClass="passenger" guiShape="passenger" probability="0.001" />
<vType id="car0_83" accel="2.60" decel="4.00" sigma="0.35" length="4.00" minGap="1.00" maxSpeed="13.41" vClass="passenger" guiShape="passenger" probability="0.001" />
<vType id="car0_84" accel="2.60" decel="4.00" sigma="0.35" length="4.00" minGap="1.00" maxSpeed="13.41" vClass="passenger" guiShape="passenger" probability="0.001" />
<vType id="car0_85" accel="2.60" decel="4.00" sigma="0.35" length="4.00" minGap="1.00" maxSpeed="13.41" vClass="passenger" guiShape="passenger" probability="0.001" />
<vType id="car0_86" accel="2.60" decel="4.00" sigma="0.35" length="4.00" minGap="1.00" maxSpeed="13.41" vClass="passenger" guiShape="passenger" probability="0.001" />
<vType id="car0_87" accel="2.60" decel="4.00" sigma="0.35" length="4.00" minGap="1.00" maxSpeed="13.41" vClass="passenger" guiShape="passenger" probability="0.001" />
<vType id="car0_88" accel="2.60" decel="4.00" sigma="0.35" length="4.00" minGap="1.00" maxSpeed="13.41" vClass="passenger" guiShape="passenger" probability="0.001" />
<vType id="car0_89" accel="2.60" decel="4.00" sigma="0.35" length="4.00" minGap="1.00" maxSpeed="13.41" vClass="passenger" guiShape="passenger" probability="0.001" />
<vType id="car0_90" accel="2.60" decel="4.00" sigma="0.35" length="4.00" minGap="1.00" maxSpeed="13.41" vClass="passenger" guiShape="passenger" probability="0.001" />
<vType id="car0_91" accel="2.60" decel="4.00" sigma="0.35" length="4.00" minGap="1.00" maxSpeed="13.41" vClass="passenger" guiShape="passenger" probability="0.001" />
<vType id="car0_92" accel="2.60" decel="4.00" sigma="0.35" length="4.00" minGap="1.00" maxSpeed="13.41" vClass="passenger" guiShape="passenger" probability="0.001" />
<vType id="car0_93" accel="2.60" decel="4.00" sigma="0.35" length="4.00" minGap="1.00" maxSpeed="13.41" vClass="passenger" guiShape="passenger" probability="0.001" />
<vType id="car0_94" accel="2.60" decel="4.00" sigma="0.35" length="4.00" minGap="1.00" maxSpeed="13.41" vClass="passenger" guiShape="passenger" probability="0.001" />
<vType id="car0_95" accel="2.60" decel="4.00" sigma="0.35" length="4.00" minGap="1.00" maxSpeed="13.41" vClass="passenger" guiShape="passenger" probability="0.001" />
<vType id="car0_96" accel="2.60" decel="4.00" sigma="0.35" length="4.00" minGap="1.00" maxSpeed="13.41" vClass="passenger" guiShape="passenger" probability="0.001" />
<vType id="car0_97" accel="2.60" decel="4.00" sigma="0.35" length="4.00" minGap="1.00" maxSpeed="13.41" vClass="passenger" guiShape="passenger" probability="0.001" />
<vType id="car0_98" accel="2.60" decel="4.00" sigma="0.35" length="4.00" minGap="1.00" maxSpeed="13.41" vClass="passenger" guiShape="passenger" probability="0.001" />
<vType id="car0_99" accel="2.60" decel="4.00" sigma="0.35" length="4.00" minGap="1.00" maxSpeed="13.41" vClass="passenger" guiShape="passenger" probability="0.001" />
<vType id="car0_100" accel="2.60" decel="4.00" sigma="0.35" length="4.00" minGap="1.00" maxSpeed="13.41" vClass="passenger" guiShape="passenger" probability="0.001" />
<vType id="car0_101" accel="2.60" decel="4.00" sigma="0.35" length="4.00" minGap="1.00" maxSpeed="13.41" vClass="passenger" guiShape="passenger" probability="0.001" />
<vType id="car0_102" accel="2.60" decel="4.00" sigma="0.35" length="4.00" minGap="1.00" maxSpeed="13.41" vClass="passenger" guiShape="passenger" probability="0.001" />
<vType id="car0_103" accel="2.60" decel="4.00" sigma="0.35" length="4.00" minGap="1.00" maxSpeed="13.41" vClass="passenger" guiShape="passenger" probability="0.001" />
<vType id="car0_104" accel="2.60" decel="4.00" sigma="0.35" length="4.00" minGap="1.00" maxSpeed="13.41" vClass="passenger" guiShape="passenger" probability="0.001" />
<vType id="car0_105" accel="2.60" decel="4.00" sigma="0.35" length="4.00" minGap="1.00" maxSpeed="13.41" vClass="passenger" guiShape="passenger" probability="0.001" />
<vType id="car0_106" accel="2.60" decel="4.00" sigma="0.35" length="4.00" minGap="1.00" maxSpeed="13.41" vClass="passenger" guiShape="passenger" probability="0.001" />
<vType id="car0_107" accel="2.60" decel="4.00" sigma="0.35" length="4.00" minGap="1.00" maxSpeed="13.41" vClass="passenger" guiShape="passenger" probability="0.001" />
<vType id="car0_108" accel="2.60" decel="4.00" sigma="0.35" length="4.00" minGap="1.00" maxSpeed="13.41" vClass="passenger" guiShape="passenger" probability="0.001" />
<vType id="car0_109" accel="2.60" decel="4.00" sigma="0.35" length="4.00" minGap="1.00" maxSpeed="13.41" vClass="passenger" guiShape="passenger" probability="0.001" />
<vType id="car0_110" accel="2.60" decel="4.00" sigma="0.35" length="4.00" minGap="1.00" maxSpeed="13.41" vClass="passenger" guiShape="passenger" probability="0.001" />
<vType id="car0_111" accel="2.60" decel="4.00" sigma="0.35" length="4.00" minGap="1.00" maxSpeed="13.41" vClass="passenger" guiShape="passenger" probability="0.001" />
<vType id="car0_112" accel="2.60" decel="4.00" sigma="0.35" length="4.00" minGap="1.00" maxSpeed="13.41" vClass="passenger" guiShape="passenger" probability="0.001" />
<vType id="car0_113" accel="2.60" decel="4.00" sigma="0.35" length="4.00" minGap="1.00" maxSpeed="13.41" vClass="passenger" guiShape="passenger" probability="0.001" />
<vType id="car0_114" accel="2.60" decel="4.00" sigma="0.35" length="4.00" minGap="1.00" maxSpeed="13.41" vClass="passenger" guiShape="passenger" probability="0.001" />
<vType id="car0_115" accel="2.60" decel="4.00" sigma="0.35" length="4.00" minGap="1.00" maxSpeed="13.41" vClass="passenger" guiShape="passenger" probability="0.001" />
<vType id="car0_116" accel="2.60" decel="4.00" sigma="0.35" length="4.00" minGap="1.00" maxSpeed="13.41" vClass="passenger" guiShape="passenger" probability="0.001" />
<vType id="car0_117" accel="2.60" decel="4.00" sigma="0.35" length="4.00" minGap="1.00" maxSpeed="13.41" vClass="passenger" guiShape="passenger" probability="0.001" />
<vType id="car0_118" accel="2.60" decel="4.00" sigma="0.35" length="4.00" minGap="1.00" maxSpeed="13.41" vClass="passenger" guiShape="passenger" probability="0.001" />
<vType id="car0_119" accel="2.60" decel="4.00" sigma="0.35" length="4.00" minGap="1.00" maxSpeed="13.41" vClass="passenger" guiShape="passenger" probability="0.001" />
<vType id="car0_120" accel="2.60" decel="4.00" sigma="0.35" length="4.00" minGap="1.00" maxSpeed="13.41" vClass="passenger" guiShape="passenger" probability="0.001" />
<vType id="car0_121" accel="2.60" decel="4.00" sigma="0.35" length="4.00" minGap="1.00" maxSpeed="13.41" vClass="passenger" guiShape="passenger" probability="0.001" />
<vType id="car0_122" accel="2.60" decel="4.00" sigma="0.35" length="4.00" minGap="1.00" maxSpeed="13.41" vClass="passenger" guiShape="passenger" probability="0.001" />
<vType id="car0_123" accel="2.60" decel="4.00" sigma="0.35" length="4.00" minGap="1.00" maxSpeed="13.41" vClass="passenger" guiShape="passenger" probability="0.001" />
<vType id="car0_124" accel="2.60" decel="4.00" sigma="0.35" length="4.00" minGap="1.00" maxSpeed="13.41" vClass="passenger" guiShape="passenger" probability="0.001" />
<vType id="car0_125" accel="2.60" decel="4.00" sigma="0.35" length="4.00" minGap="1.00" maxSpeed="13.41" vClass="passenger" guiShape="passenger" probability="0.001" />
<vType id="car0_126" accel="2.60" decel="4.00" sigma="0.35" length="4.00" minGap="1.00" maxSpeed="13.41" vClass="passenger" guiShape="passenger" probability="0.001" />
<vType id="car0_127" accel="2.60" decel="4.00" sigma="0.35" length="4.00" minGap="1.00" maxSpeed="13.41" vClass="passenger" guiShape="passenger" probability="0.001" />
<vType id="car0_128" accel="2.60" decel="4.00" sigma="0.35" length="4.00" minGap="1.00" maxSpeed="13.41" vClass="passenger" guiShape="passenger" probability="0.001" />
<vType id="car0_129" accel="2.60" decel="4.00" sigma="0.35" length="4.00" minGap="1.00" maxSpeed="13.41" vClass="passenger" guiShape="passenger" probability="0.001" />
<vType id="car0_130" accel="2.60" decel="4.00" sigma="0.35" length="4.00" minGap="1.00" maxSpeed="13.41" vClass="passenger" guiShape="passenger" probability="0.001" />
<vType id="car0_131" accel="2.60" decel="4.00" sigma="0.35" length="4.00" minGap="1.00" maxSpeed="13.41" vClass="passenger" guiShape="passenger" probability="0.001" />
<vType id="car0_132" accel="2.60" decel="4.00" sigma="0.35" length="4.00" minGap="1.00" maxSpeed="13.41" vClass="passenger" guiShape="passenger" probability="0.001" />
<vType id="car0_133" accel="2.60" decel="4.00" sigma="0.35" length="4.00" minGap="1.00" maxSpeed="13.41" vClass="passenger" guiShape="passenger" probability="0.001" />
<vType id="car0_134" accel="2.60" decel="4.00" sigma="0.35" length="4.00" minGap="1.00" maxSpeed="13.41" vClass="passenger" guiShape="passenger" probability="0.001" />
<vType id="car0_135" accel="2.60" decel="4.00" sigma="0.35" length="4.00" minGap="1.00" maxSpeed="13.41" vClass="passenger" guiShape="passenger" probability="0.001" />
<vType id="car0_136" accel="2.60" decel="4.00" sigma="0.35" length="4.00" minGap="1.00" maxSpeed="13.41" vClass="passenger" guiShape="passenger" probability="0.001" />
<vType id="car0_137" accel="2.60" decel="4.00" sigma="0.35" length="4.00" minGap="1.00" maxSpeed="13.41" vClass="passenger" guiShape="passenger" probability="0.001" />
<vType id="car0_138" accel="2.60" decel="4.00" sigma="0.35" length="4.00" minGap="1.00" maxSpeed="13.41" vClass="passenger" guiShape="passenger" probability="0.001" />
<vType id="car0_139" accel="2.60" decel="4.00" sigma="0.35" length="4.00" minGap="1.00" maxSpeed="13.41" vClass="passenger" guiShape="passenger" probability="0.001" />
<vType id="car0_140" accel="2.60" decel="4.00" sigma="0.35" length="4.00" minGap="1.00" maxSpeed="13.41" vClass="passenger" guiShape="passenger" probability="0.001" />
<vType id="car0_141" accel="2.60" decel="4.00" sigma="0.35" length="4.00" minGap="1.00" maxSpeed="13.41" vClass="passenger" guiShape="passenger" probability="0.001" />
<vType id="car0_142" accel="2.60" decel="4.00" sigma="0.35" length="4.00" minGap="1.00" maxSpeed="13.41" vClass="passenger" guiShape="passenger" probability="0.001" />
<vType id="car0_143" accel="2.60" decel="4.00" sigma="0.35" length="4.00" minGap="1.00" maxSpeed="13.41" vClass="passenger" guiShape="passenger" probability="0.001" />
<vType id="car0_144" accel="2.60" decel="4.00" sigma="0.35" length="4.00" minGap="1.00" maxSpeed="13.41" vClass="passenger" guiShape="passenger" probability="0.001" />
<vType id="car0_145" accel="2.60" decel="4.00" sigma="0.35" length="4.00" minGap="1.00" maxSpeed="13.41" vClass="passenger" guiShape="passenger" probability="0.001" />
<vType id="car0_146" accel="2.60" decel="4.00" sigma="0.35" length="4.00" minGap="1.00" maxSpeed="13.41" vClass="passenger" guiShape="passenger" probability="0.001" />
<vType id="car0_147" accel="2.60" decel="4.00" sigma="0.35" length="4.00" minGap="1.00" maxSpeed="13.41" vClass="passenger" guiShape="passenger" probability="0.001" />
<vType id="car0_148" accel="2.60" decel="4.00" sigma="0.35" length="4.00" minGap="1.00" maxSpeed="13.41" vClass="passenger" guiShape="passenger" probability="0.001" />
<vType id="car0_149" accel="2.60" decel="4.00" sigma="0.35" length="4.00" minGap="1.00" maxSpeed="13.41" vClass="passenger" guiShape="passenger" probability="0.001" />
<vType id="car0_150" accel="2.60" decel="4.00" sigma="0.35" length="4.00" minGap="1.00" maxSpeed="13.41" vClass="passenger" guiShape="passenger" probability="0.001" />
<vType id="car0_151" accel="2.60" decel="4.00" sigma="0.35" length="4.00" minGap="1.00" maxSpeed="13.41" vClass="passenger" guiShape="passenger" probability="0.001" />
<vType id="car0_152" accel="2.60" decel="4.00" sigma="0.35" length="4.00" minGap="1.00" maxSpeed="13.41" vClass="passenger" guiShape="passenger" probability="0.001" />
<vType id="car0_153" accel="2.60" decel="4.00" sigma="0.35" length="4.00" minGap="1.00" maxSpeed="13.41" vClass="passenger" guiShape="passenger" probability="0.001" />
<vType id="car0_154" accel="2.60" decel="4.00" sigma="0.35" length="4.00" minGap="1.00" maxSpeed="13.41" vClass="passenger" guiShape="passenger" probability="0.001" />
<vType id="car0_155" accel="2.60" decel="4.00" sigma="0.35" length="4.00" minGap="1.00" maxSpeed="13.41" vClass="passenger" guiShape="passenger" probability="0.001" />
<vType id="car0_156" accel="2.60" decel="4.00" sigma="0.35" length="4.00" minGap="1.00" maxSpeed="13.41" vClass="passenger" guiShape="passenger" probability="0.001" />
<vType id="car0_157" accel="2.60" decel="4.00" sigma="0.35" length="4.00" minGap="1.00" maxSpeed="13.41" vClass="passenger" guiShape="passenger" probability="0.001" />
<vType id="car0_158" accel="2.60" decel="4.00" sigma="0.35" length="4.00" minGap="1.00" maxSpeed="13.41" vClass="passenger" guiShape="passenger" probability="0.001" />
<vType id="car0_159" accel="2.60" decel="4.00" sigma="0.35" length="4.00" minGap="1.00" maxSpeed="13.41" vClass="passenger" guiShape="passenger" probability="0.001" />
<vType id="car0_160" accel="2.60" decel="4.00" sigma="0.35" length="4.00" minGap="1.00" maxSpeed="13.41" vClass="passenger" guiShape="passenger" probability="0.001" />
<vType id="car0_161" accel="2.60" decel="4.00" sigma="0.35" length="4.00" minGap="1.00" maxSpeed="13.41" vClass="passenger" guiShape="passenger" probability="0.001" />
<vType id="car0_162" accel="2.60" decel="4.00" sigma="0.35" length="4.00" minGap="1.00" maxSpeed="13.41" vClass="passenger" guiShape="passenger" probability="0.001" />
<vType id="car0_163" accel="2.60" decel="4.00" sigma="0.35" length="4.00" minGap="1.00" maxSpeed="13.41" vClass="passenger" guiShape="passenger" probability="0.001" />
<vType id="car0_164" accel="2.60" decel="4.00" sigma="0.35" length="4.00" minGap="1.00" maxSpeed="13.41" vClass="passenger" guiShape="passenger" probability="0.001" />
<vType id="car0_165" accel="2.60" decel="4.00" sigma="0.35" length="4.00" minGap="1.00" maxSpeed="13.41" vClass="passenger" guiShape="passenger" probability="0.001" />
<vType id="car0_166" accel="2.60" decel="4.00" sigma="0.35" length="4.00" minGap="1.00" maxSpeed="13.41" vClass="passenger" guiShape="passenger" probability="0.001" />
<vType id="car0_167" accel="2.60" decel="4.00" sigma="0.35" length="4.00" minGap="1.00" maxSpeed="13.41" vClass="passenger" guiShape="passenger" probability="0.001" />
<vType id="car0_168" accel="2.60" decel="4.00" sigma="0.35" length="4.00" minGap="1.00" maxSpeed="13.41" vClass="passenger" guiShape="passenger" probability="0.001" />
<vType id="car0_169" accel="2.60" decel="4.00" sigma="0.35" length="4.00" minGap="1.00" maxSpeed="13.41" vClass="passenger" guiShape="passenger" probability="0.001" />
<vType id="car0_170" accel="2.60" decel="4.00" sigma="0.35" length="4.00" minGap="1.00" maxSpeed="13.41" vClass="passenger" guiShape="passenger" probability="0.001" />
<vType id="car0_171" accel="2.60" decel="4.00" sigma="0.35" length="4.00" minGap="1.00" maxSpeed="13.41" vClass="passenger" guiShape="passenger" probability="0.001" />
<vType id="car0_172" accel="2.60" decel="4.00" sigma="0.35" length="4.00" minGap="1.00" maxSpeed="13.41" vClass="passenger" guiShape="passenger" probability="0.001" />
<vType id="car0_173" accel="2.60" decel="4.00" sigma="0.35" length="4.00" minGap="1.00" maxSpeed="13.41" vClass="passenger" guiShape="passenger" probability="0.001" />
<vType id="car0_174" accel="2.60" decel="4.00" sigma="0.35" length="4.00" minGap="1.00" maxSpeed="13.41" vClass="passenger" guiShape="passenger" probability="0.001" />
<vType id="car0_175" accel="2.60" decel="4.00" sigma="0.35" length="4.00" minGap="1.00" maxSpeed="13.41" vClass="passenger" guiShape="passenger" probability="0.001" />
<vType id="car0_176" accel="2.60" decel="4.00" sigma="0.35" length="4.00" minGap="1.00" maxSpeed="13.41" vClass="passenger" guiShape="passenger" probability="0.001" />
<vType id="car0_177" accel="2.60" decel="4.00" sigma="0.35" length="4.00" minGap="1.00" maxSpeed="13.41" vClass="passenger" guiShape="passenger" probability="0.001" />