<?xml version="1.0" encoding="UTF-8"?>

<!-- generated on Wed Mar  1 15:27:53 2017 by SUMO duarouter Version 0.25.0
<?xml version="1.0" encoding="UTF-8"?>

<configuration xmlns:xsi="http://www.w3.org/2001/XMLSchema-instance" xsi:noNamespaceSchemaLocation="http://sumo.dlr.de/xsd/duarouterConfiguration.xsd">

    <input>
        <net-file value="manhattan_test.net.xml"/>
        <alternative-files value="manhattan_test_000.rou.alt.xml"/>
        <weight-files value="dump_000_900.xml"/>
    </input>

    <output>
        <output-file value="manhattan_test_001.rou.xml"/>
        <exit-times value="false"/>
    </output>

    <processing>
        <ignore-errors value="false"/>
        <max-alternatives value="5"/>
        <with-taz value="false"/>
        <routing-algorithm value="dijkstra"/>
        <weights.expand value="true"/>
        <gawron.beta value="0.9"/>
        <gawron.a value="0.5"/>
        <keep-all-routes value="false"/>
        <logit value="false"/>
        <logit.beta value="0.15"/>
        <logit.gamma value="1"/>
    </processing>

    <time>
        <begin value="0"/>
        <end value="100"/>
    </time>

    <report>
        <verbose value="false"/>
        <no-warnings value="false"/>
        <no-step-log value="true"/>
    </report>

    <random_number>
        <random value="false"/>
    </random_number>

</configuration>
-->

<routes xmlns:xsi="http://www.w3.org/2001/XMLSchema-instance" xsi:noNamespaceSchemaLocation="http://sumo.dlr.de/xsd/routes_file.xsd">
    <vType id="car1_73" length="4.70" minGap="1.00" maxSpeed="12.76" probability="0.00" vClass="passenger" guiShape="passenger/van">
        <carFollowing-Krauss accel="2.40" decel="4.00" sigma="0.55"/>
    </vType>
    <vehicle id="0" type="car1_73" depart="0.00" departLane="best" departPos="random" departSpeed="random">
        <route edges="left0to0/0 0/0to1/0 1/0to2/0 2/0to3/0 3/0to4/0 4/0to5/0 5/0to6/0 6/0to7/0 7/0to8/0 8/0to9/0 9/0to10/0 10/0to11/0 11/0to12/0 12/0to13/0 13/0to14/0 14/0to15/0 15/0to16/0 16/0to17/0 17/0to18/0 18/0to19/0 19/0to20/0 20/0to21/0 21/0to22/0 22/0to23/0 23/0to24/0 24/0to25/0 25/0to26/0 26/0to27/0 27/0to28/0 28/0to29/0 29/0toright0"/>
    </vehicle>
    <vType id="car1_117" length="4.70" minGap="1.00" maxSpeed="16.95" probability="0.00" vClass="passenger" guiShape="passenger/van">
        <carFollowing-Krauss accel="2.40" decel="4.00" sigma="0.55"/>
    </vType>
    <vehicle id="1" type="car1_117" depart="0.00" departLane="best" departPos="random" departSpeed="random">
        <route edges="left2to0/2 0/2to0/1 0/1to1/1 1/1to2/1 2/1to3/1 3/1to4/1 4/1to5/1 5/1to6/1 6/1to7/1 7/1to8/1 8/1to9/1 9/1to10/1 10/1to11/1 11/1to12/1 12/1to13/1 13/1to14/1 14/1to15/1 15/1to16/1 16/1to17/1 17/1to18/1 18/1to19/1 19/1to20/1 20/1to21/1 21/1to22/1 22/1to23/1 23/1to24/1 24/1to25/1 25/1to26/1 26/1to27/1 27/1to28/1 28/1to29/1 29/1to29/2 29/2toright2"/>
    </vehicle>
</routes>
