<?xml version="1.0" encoding="UTF-8"?>

<!-- generated on Wed Mar  1 15:38:29 2017 by SUMO netgenerate Version 0.25.0
<?xml version="1.0" encoding="UTF-8"?>

<configuration xmlns:xsi="http://www.w3.org/2001/XMLSchema-instance" xsi:noNamespaceSchemaLocation="http://sumo.dlr.de/xsd/netgenerateConfiguration.xsd">

    <grid_network>
        <grid value="true"/>
        <grid.x-number value="30"/>
        <grid.y-number value="3"/>
        <grid.x-length value="80"/>
        <grid.y-length value="70"/>
        <grid.attach-length value="20"/>
    </grid_network>

    <output>
        <output-file value="manhattan_test.net.xml"/>
    </output>

    <processing>
        <no-turnarounds value="true"/>
    </processing>

    <building_defaults>
        <default.lanenumber value="3"/>
        <default-junction-type value="allway_stop"/>
    </building_defaults>

    <random_number>
        <seed value="0"/>
    </random_number>

</configuration>
-->

<net version="0.25" xmlns:xsi="http://www.w3.org/2001/XMLSchema-instance" xsi:noNamespaceSchemaLocation="http://sumo.dlr.de/xsd/net_file.xsd">

    <location netOffset="0.00,0.00" convBoundary="0.00,0.00,2360.00,180.00" origBoundary="0.00,0.00,2360.00,180.00" projParameter="!"/>

    <edge id=":0/0_0" function="internal">
        <lane id=":0/0_0_0" index="0" speed="13.90" length="5.00" shape="11.75,31.35 11.56,29.99 10.98,29.03 10.01,28.44 8.65,28.25"/>
    </edge>
    <edge id=":0/0_1" function="internal">
        <lane id=":0/0_1_0" index="0" speed="13.90" length="22.70" shape="11.75,31.35 11.75,24.61 11.75,20.00 11.75,15.39 11.75,8.65"/>
        <lane id=":0/0_1_1" index="1" speed="13.90" length="22.70" shape="15.05,31.35 15.05,24.61 15.05,20.00 15.05,15.39 15.05,8.65"/>
        <lane id=":0/0_1_2" index="2" speed="13.90" length="22.70" shape="18.35,31.35 18.35,24.61 18.35,20.00 18.35,15.39 18.35,8.65"/>
    </edge>
    <edge id=":0/0_4" function="internal">
        <lane id=":0/0_4_0" index="0" speed="13.90" length="20.97" shape="18.35,31.35 19.16,25.66 21.60,21.60 25.66,19.16 31.35,18.35"/>
    </edge>
    <edge id=":0/0_5" function="internal">
        <lane id=":0/0_5_0" index="0" speed="13.90" length="5.00" shape="31.35,28.25 29.99,28.44 29.02,29.02 28.44,29.99 28.25,31.35"/>
    </edge>
    <edge id=":0/0_6" function="internal">
        <lane id=":0/0_6_0" index="0" speed="13.90" length="22.70" shape="31.35,24.95 24.61,24.95 20.00,24.95 15.39,24.95 8.65,24.95"/>
    </edge>
    <edge id=":0/0_7" function="internal">
        <lane id=":0/0_7_0" index="0" speed="13.90" length="20.97" shape="31.35,21.65 25.66,20.84 21.60,18.40 19.16,14.34 18.35,8.65"/>
    </edge>
    <edge id=":0/0_8" function="internal">
        <lane id=":0/0_8_0" index="0" speed="13.90" length="5.00" shape="28.25,8.65 28.44,10.01 29.02,10.98 29.99,11.56 31.35,11.75"/>
    </edge>
    <edge id=":0/0_9" function="internal">
        <lane id=":0/0_9_0" index="0" speed="13.90" length="22.70" shape="28.25,8.65 28.25,15.39 28.25,20.00 28.25,24.61 28.25,31.35"/>
        <lane id=":0/0_9_1" index="1" speed="13.90" length="22.70" shape="24.95,8.65 24.95,15.39 24.95,20.00 24.95,24.61 24.95,31.35"/>
        <lane id=":0/0_9_2" index="2" speed="13.90" length="22.70" shape="21.65,8.65 21.65,15.39 21.65,20.00 21.65,24.61 21.65,31.35"/>
    </edge>
    <edge id=":0/0_12" function="internal">
        <lane id=":0/0_12_0" index="0" speed="13.90" length="20.97" shape="21.65,8.65 20.84,14.34 18.40,18.40 14.34,20.84 8.65,21.65"/>
    </edge>
    <edge id=":0/0_13" function="internal">
        <lane id=":0/0_13_0" index="0" speed="13.90" length="5.00" shape="8.65,11.75 10.01,11.56 10.98,10.98 11.56,10.01 11.75,8.65"/>
    </edge>
    <edge id=":0/0_14" function="internal">
        <lane id=":0/0_14_0" index="0" speed="13.90" length="22.70" shape="8.65,15.05 15.39,15.05 20.00,15.05 24.61,15.05 31.35,15.05"/>
    </edge>
    <edge id=":0/0_15" function="internal">
        <lane id=":0/0_15_0" index="0" speed="13.90" length="20.97" shape="8.65,18.35 14.34,19.16 18.40,21.60 20.84,25.66 21.65,31.35"/>
    </edge>
    <edge id=":0/1_0" function="internal">
        <lane id=":0/1_0_0" index="0" speed="13.90" length="5.00" shape="11.75,101.35 11.56,99.99 10.98,99.03 10.01,98.44 8.65,98.25"/>
    </edge>
    <edge id=":0/1_1" function="internal">
        <lane id=":0/1_1_0" index="0" speed="13.90" length="22.70" shape="11.75,101.35 11.75,94.61 11.75,90.00 11.75,85.39 11.75,78.65"/>
        <lane id=":0/1_1_1" index="1" speed="13.90" length="22.70" shape="15.05,101.35 15.05,94.61 15.05,90.00 15.05,85.39 15.05,78.65"/>
        <lane id=":0/1_1_2" index="2" speed="13.90" length="22.70" shape="18.35,101.35 18.35,94.61 18.35,90.00 18.35,85.39 18.35,78.65"/>
    </edge>
    <edge id=":0/1_4" function="internal">
        <lane id=":0/1_4_0" index="0" speed="13.90" length="20.97" shape="18.35,101.35 19.16,95.66 21.60,91.60 25.66,89.16 31.35,88.35"/>
    </edge>
    <edge id=":0/1_5" function="internal">
        <lane id=":0/1_5_0" index="0" speed="13.90" length="5.00" shape="31.35,98.25 29.99,98.44 29.03,99.02 28.44,99.99 28.25,101.35"/>
    </edge>
    <edge id=":0/1_6" function="internal">
        <lane id=":0/1_6_0" index="0" speed="13.90" length="22.70" shape="31.35,94.95 24.61,94.95 20.00,94.95 15.39,94.95 8.65,94.95"/>
    </edge>
    <edge id=":0/1_7" function="internal">
        <lane id=":0/1_7_0" index="0" speed="13.90" length="20.97" shape="31.35,91.65 25.66,90.84 21.60,88.40 19.16,84.34 18.35,78.65"/>
    </edge>
    <edge id=":0/1_8" function="internal">
        <lane id=":0/1_8_0" index="0" speed="13.90" length="5.00" shape="28.25,78.65 28.44,80.01 29.02,80.98 29.99,81.56 31.35,81.75"/>
    </edge>
    <edge id=":0/1_9" function="internal">
        <lane id=":0/1_9_0" index="0" speed="13.90" length="22.70" shape="28.25,78.65 28.25,85.39 28.25,90.00 28.25,94.61 28.25,101.35"/>
        <lane id=":0/1_9_1" index="1" speed="13.90" length="22.70" shape="24.95,78.65 24.95,85.39 24.95,90.00 24.95,94.61 24.95,101.35"/>
        <lane id=":0/1_9_2" index="2" speed="13.90" length="22.70" shape="21.65,78.65 21.65,85.39 21.65,90.00 21.65,94.61 21.65,101.35"/>
    </edge>
    <edge id=":0/1_12" function="internal">
        <lane id=":0/1_12_0" index="0" speed="13.90" length="20.97" shape="21.65,78.65 20.84,84.34 18.40,88.40 14.34,90.84 8.65,91.65"/>
    </edge>
    <edge id=":0/1_13" function="internal">
        <lane id=":0/1_13_0" index="0" speed="13.90" length="5.00" shape="8.65,81.75 10.01,81.56 10.98,80.98 11.56,80.01 11.75,78.65"/>
    </edge>
    <edge id=":0/1_14" function="internal">
        <lane id=":0/1_14_0" index="0" speed="13.90" length="22.70" shape="8.65,85.05 15.39,85.05 20.00,85.05 24.61,85.05 31.35,85.05"/>
    </edge>
    <edge id=":0/1_15" function="internal">
        <lane id=":0/1_15_0" index="0" speed="13.90" length="20.97" shape="8.65,88.35 14.34,89.16 18.40,91.60 20.84,95.66 21.65,101.35"/>
    </edge>
    <edge id=":0/2_0" function="internal">
        <lane id=":0/2_0_0" index="0" speed="13.90" length="5.00" shape="11.75,171.35 11.56,169.99 10.98,169.03 10.01,168.44 8.65,168.25"/>
    </edge>
    <edge id=":0/2_1" function="internal">
        <lane id=":0/2_1_0" index="0" speed="13.90" length="22.70" shape="11.75,171.35 11.75,164.61 11.75,160.00 11.75,155.39 11.75,148.65"/>
        <lane id=":0/2_1_1" index="1" speed="13.90" length="22.70" shape="15.05,171.35 15.05,164.61 15.05,160.00 15.05,155.39 15.05,148.65"/>
        <lane id=":0/2_1_2" index="2" speed="13.90" length="22.70" shape="18.35,171.35 18.35,164.61 18.35,160.00 18.35,155.39 18.35,148.65"/>
    </edge>
    <edge id=":0/2_4" function="internal">
        <lane id=":0/2_4_0" index="0" speed="13.90" length="20.97" shape="18.35,171.35 19.16,165.66 21.60,161.60 25.66,159.16 31.35,158.35"/>
    </edge>
    <edge id=":0/2_5" function="internal">
        <lane id=":0/2_5_0" index="0" speed="13.90" length="5.00" shape="31.35,168.25 29.99,168.44 29.02,169.03 28.44,169.99 28.25,171.35"/>
    </edge>
    <edge id=":0/2_6" function="internal">
        <lane id=":0/2_6_0" index="0" speed="13.90" length="22.70" shape="31.35,164.95 24.61,164.95 20.00,164.95 15.39,164.95 8.65,164.95"/>
    </edge>
    <edge id=":0/2_7" function="internal">
        <lane id=":0/2_7_0" index="0" speed="13.90" length="20.97" shape="31.35,161.65 25.66,160.84 21.60,158.40 19.16,154.34 18.35,148.65"/>
    </edge>
    <edge id=":0/2_8" function="internal">
        <lane id=":0/2_8_0" index="0" speed="13.90" length="5.00" shape="28.25,148.65 28.44,150.01 29.02,150.98 29.99,151.56 31.35,151.75"/>
    </edge>
    <edge id=":0/2_9" function="internal">
        <lane id=":0/2_9_0" index="0" speed="13.90" length="22.70" shape="28.25,148.65 28.25,155.39 28.25,160.00 28.25,164.61 28.25,171.35"/>
        <lane id=":0/2_9_1" index="1" speed="13.90" length="22.70" shape="24.95,148.65 24.95,155.39 24.95,160.00 24.95,164.61 24.95,171.35"/>
        <lane id=":0/2_9_2" index="2" speed="13.90" length="22.70" shape="21.65,148.65 21.65,155.39 21.65,160.00 21.65,164.61 21.65,171.35"/>
    </edge>
    <edge id=":0/2_12" function="internal">
        <lane id=":0/2_12_0" index="0" speed="13.90" length="20.97" shape="21.65,148.65 20.84,154.34 18.40,158.40 14.34,160.84 8.65,161.65"/>
    </edge>
    <edge id=":0/2_13" function="internal">
        <lane id=":0/2_13_0" index="0" speed="13.90" length="5.00" shape="8.65,151.75 10.01,151.56 10.98,150.98 11.56,150.01 11.75,148.65"/>
    </edge>
    <edge id=":0/2_14" function="internal">
        <lane id=":0/2_14_0" index="0" speed="13.90" length="22.70" shape="8.65,155.05 15.39,155.05 20.00,155.05 24.61,155.05 31.35,155.05"/>
    </edge>
    <edge id=":0/2_15" function="internal">
        <lane id=":0/2_15_0" index="0" speed="13.90" length="20.97" shape="8.65,158.35 14.34,159.16 18.40,161.60 20.84,165.66 21.65,171.35"/>
    </edge>
    <edge id=":1/0_0" function="internal">
        <lane id=":1/0_0_0" index="0" speed="13.90" length="5.00" shape="91.75,31.35 91.56,29.99 90.97,29.03 90.01,28.44 88.65,28.25"/>
    </edge>
    <edge id=":1/0_1" function="internal">
        <lane id=":1/0_1_0" index="0" speed="13.90" length="22.70" shape="91.75,31.35 91.75,24.61 91.75,20.00 91.75,15.39 91.75,8.65"/>
        <lane id=":1/0_1_1" index="1" speed="13.90" length="22.70" shape="95.05,31.35 95.05,24.61 95.05,20.00 95.05,15.39 95.05,8.65"/>
        <lane id=":1/0_1_2" index="2" speed="13.90" length="22.70" shape="98.35,31.35 98.35,24.61 98.35,20.00 98.35,15.39 98.35,8.65"/>
    </edge>
    <edge id=":1/0_4" function="internal">
        <lane id=":1/0_4_0" index="0" speed="13.90" length="20.97" shape="98.35,31.35 99.16,25.66 101.60,21.60 105.66,19.16 111.35,18.35"/>
    </edge>
    <edge id=":1/0_5" function="internal">
        <lane id=":1/0_5_0" index="0" speed="13.90" length="5.00" shape="111.35,28.25 109.99,28.44 109.03,29.02 108.44,29.99 108.25,31.35"/>
    </edge>
    <edge id=":1/0_6" function="internal">
        <lane id=":1/0_6_0" index="0" speed="13.90" length="22.70" shape="111.35,24.95 104.61,24.95 100.00,24.95 95.39,24.95 88.65,24.95"/>
    </edge>
    <edge id=":1/0_7" function="internal">
        <lane id=":1/0_7_0" index="0" speed="13.90" length="20.97" shape="111.35,21.65 105.66,20.84 101.60,18.40 99.16,14.34 98.35,8.65"/>
    </edge>
    <edge id=":1/0_8" function="internal">
        <lane id=":1/0_8_0" index="0" speed="13.90" length="5.00" shape="108.25,8.65 108.44,10.01 109.03,10.98 109.99,11.56 111.35,11.75"/>
    </edge>
    <edge id=":1/0_9" function="internal">
        <lane id=":1/0_9_0" index="0" speed="13.90" length="22.70" shape="108.25,8.65 108.25,15.39 108.25,20.00 108.25,24.61 108.25,31.35"/>
        <lane id=":1/0_9_1" index="1" speed="13.90" length="22.70" shape="104.95,8.65 104.95,15.39 104.95,20.00 104.95,24.61 104.95,31.35"/>
        <lane id=":1/0_9_2" index="2" speed="13.90" length="22.70" shape="101.65,8.65 101.65,15.39 101.65,20.00 101.65,24.61 101.65,31.35"/>
    </edge>
    <edge id=":1/0_12" function="internal">
        <lane id=":1/0_12_0" index="0" speed="13.90" length="20.97" shape="101.65,8.65 100.84,14.34 98.40,18.40 94.34,20.84 88.65,21.65"/>
    </edge>
    <edge id=":1/0_13" function="internal">
        <lane id=":1/0_13_0" index="0" speed="13.90" length="5.00" shape="88.65,11.75 90.01,11.56 90.97,10.98 91.56,10.01 91.75,8.65"/>
    </edge>
    <edge id=":1/0_14" function="internal">
        <lane id=":1/0_14_0" index="0" speed="13.90" length="22.70" shape="88.65,15.05 95.39,15.05 100.00,15.05 104.61,15.05 111.35,15.05"/>
    </edge>
    <edge id=":1/0_15" function="internal">
        <lane id=":1/0_15_0" index="0" speed="13.90" length="20.97" shape="88.65,18.35 94.34,19.16 98.40,21.60 100.84,25.66 101.65,31.35"/>
    </edge>
    <edge id=":1/1_0" function="internal">
        <lane id=":1/1_0_0" index="0" speed="13.90" length="5.00" shape="91.75,101.35 91.56,99.99 90.97,99.02 90.01,98.44 88.65,98.25"/>
    </edge>
    <edge id=":1/1_1" function="internal">
        <lane id=":1/1_1_0" index="0" speed="13.90" length="22.70" shape="91.75,101.35 91.75,94.61 91.75,90.00 91.75,85.39 91.75,78.65"/>
        <lane id=":1/1_1_1" index="1" speed="13.90" length="22.70" shape="95.05,101.35 95.05,94.61 95.05,90.00 95.05,85.39 95.05,78.65"/>
        <lane id=":1/1_1_2" index="2" speed="13.90" length="22.70" shape="98.35,101.35 98.35,94.61 98.35,90.00 98.35,85.39 98.35,78.65"/>
    </edge>
    <edge id=":1/1_4" function="internal">
        <lane id=":1/1_4_0" index="0" speed="13.90" length="20.97" shape="98.35,101.35 99.16,95.66 101.60,91.60 105.66,89.16 111.35,88.35"/>
    </edge>
    <edge id=":1/1_5" function="internal">
        <lane id=":1/1_5_0" index="0" speed="13.90" length="5.00" shape="111.35,98.25 109.99,98.44 109.03,99.02 108.44,99.99 108.25,101.35"/>
    </edge>
    <edge id=":1/1_6" function="internal">
        <lane id=":1/1_6_0" index="0" speed="13.90" length="22.70" shape="111.35,94.95 104.61,94.95 100.00,94.95 95.39,94.95 88.65,94.95"/>
    </edge>
    <edge id=":1/1_7" function="internal">
        <lane id=":1/1_7_0" index="0" speed="13.90" length="20.97" shape="111.35,91.65 105.66,90.84 101.60,88.40 99.16,84.34 98.35,78.65"/>
    </edge>
    <edge id=":1/1_8" function="internal">
        <lane id=":1/1_8_0" index="0" speed="13.90" length="5.00" shape="108.25,78.65 108.44,80.01 109.03,80.97 109.99,81.56 111.35,81.75"/>
    </edge>
    <edge id=":1/1_9" function="internal">
        <lane id=":1/1_9_0" index="0" speed="13.90" length="22.70" shape="108.25,78.65 108.25,85.39 108.25,90.00 108.25,94.61 108.25,101.35"/>
        <lane id=":1/1_9_1" index="1" speed="13.90" length="22.70" shape="104.95,78.65 104.95,85.39 104.95,90.00 104.95,94.61 104.95,101.35"/>
        <lane id=":1/1_9_2" index="2" speed="13.90" length="22.70" shape="101.65,78.65 101.65,85.39 101.65,90.00 101.65,94.61 101.65,101.35"/>
    </edge>
    <edge id=":1/1_12" function="internal">
        <lane id=":1/1_12_0" index="0" speed="13.90" length="20.97" shape="101.65,78.65 100.84,84.34 98.40,88.40 94.34,90.84 88.65,91.65"/>
    </edge>
    <edge id=":1/1_13" function="internal">
        <lane id=":1/1_13_0" index="0" speed="13.90" length="5.00" shape="88.65,81.75 90.01,81.56 90.97,80.98 91.56,80.01 91.75,78.65"/>
    </edge>
    <edge id=":1/1_14" function="internal">
        <lane id=":1/1_14_0" index="0" speed="13.90" length="22.70" shape="88.65,85.05 95.39,85.05 100.00,85.05 104.61,85.05 111.35,85.05"/>
    </edge>
    <edge id=":1/1_15" function="internal">
        <lane id=":1/1_15_0" index="0" speed="13.90" length="20.97" shape="88.65,88.35 94.34,89.16 98.40,91.60 100.84,95.66 101.65,101.35"/>
    </edge>
    <edge id=":1/2_0" function="internal">
        <lane id=":1/2_0_0" index="0" speed="13.90" length="5.00" shape="91.75,171.35 91.56,169.99 90.97,169.03 90.01,168.44 88.65,168.25"/>
    </edge>
    <edge id=":1/2_1" function="internal">
        <lane id=":1/2_1_0" index="0" speed="13.90" length="22.70" shape="91.75,171.35 91.75,164.61 91.75,160.00 91.75,155.39 91.75,148.65"/>
        <lane id=":1/2_1_1" index="1" speed="13.90" length="22.70" shape="95.05,171.35 95.05,164.61 95.05,160.00 95.05,155.39 95.05,148.65"/>
        <lane id=":1/2_1_2" index="2" speed="13.90" length="22.70" shape="98.35,171.35 98.35,164.61 98.35,160.00 98.35,155.39 98.35,148.65"/>
    </edge>
    <edge id=":1/2_4" function="internal">
        <lane id=":1/2_4_0" index="0" speed="13.90" length="20.97" shape="98.35,171.35 99.16,165.66 101.60,161.60 105.66,159.16 111.35,158.35"/>
    </edge>
    <edge id=":1/2_5" function="internal">
        <lane id=":1/2_5_0" index="0" speed="13.90" length="5.00" shape="111.35,168.25 109.99,168.44 109.03,169.03 108.44,169.99 108.25,171.35"/>
    </edge>
    <edge id=":1/2_6" function="internal">
        <lane id=":1/2_6_0" index="0" speed="13.90" length="22.70" shape="111.35,164.95 104.61,164.95 100.00,164.95 95.39,164.95 88.65,164.95"/>
    </edge>
    <edge id=":1/2_7" function="internal">
        <lane id=":1/2_7_0" index="0" speed="13.90" length="20.97" shape="111.35,161.65 105.66,160.84 101.60,158.40 99.16,154.34 98.35,148.65"/>
    </edge>
    <edge id=":1/2_8" function="internal">
        <lane id=":1/2_8_0" index="0" speed="13.90" length="5.00" shape="108.25,148.65 108.44,150.01 109.03,150.98 109.99,151.56 111.35,151.75"/>
    </edge>
    <edge id=":1/2_9" function="internal">
        <lane id=":1/2_9_0" index="0" speed="13.90" length="22.70" shape="108.25,148.65 108.25,155.39 108.25,160.00 108.25,164.61 108.25,171.35"/>
        <lane id=":1/2_9_1" index="1" speed="13.90" length="22.70" shape="104.95,148.65 104.95,155.39 104.95,160.00 104.95,164.61 104.95,171.35"/>
        <lane id=":1/2_9_2" index="2" speed="13.90" length="22.70" shape="101.65,148.65 101.65,155.39 101.65,160.00 101.65,164.61 101.65,171.35"/>
    </edge>
    <edge id=":1/2_12" function="internal">
        <lane id=":1/2_12_0" index="0" speed="13.90" length="20.97" shape="101.65,148.65 100.84,154.34 98.40,158.40 94.34,160.84 88.65,161.65"/>
    </edge>
    <edge id=":1/2_13" function="internal">
        <lane id=":1/2_13_0" index="0" speed="13.90" length="5.00" shape="88.65,151.75 90.01,151.56 90.97,150.98 91.56,150.01 91.75,148.65"/>
    </edge>
    <edge id=":1/2_14" function="internal">
        <lane id=":1/2_14_0" index="0" speed="13.90" length="22.70" shape="88.65,155.05 95.39,155.05 100.00,155.05 104.61,155.05 111.35,155.05"/>
    </edge>
    <edge id=":1/2_15" function="internal">
        <lane id=":1/2_15_0" index="0" speed="13.90" length="20.97" shape="88.65,158.35 94.34,159.16 98.40,161.60 100.84,165.66 101.65,171.35"/>
    </edge>
    <edge id=":10/0_0" function="internal">
        <lane id=":10/0_0_0" index="0" speed="13.90" length="5.00" shape="811.75,31.35 811.56,29.99 810.98,29.02 810.01,28.44 808.65,28.25"/>
    </edge>
    <edge id=":10/0_1" function="internal">
        <lane id=":10/0_1_0" index="0" speed="13.90" length="22.70" shape="811.75,31.35 811.75,24.61 811.75,20.00 811.75,15.39 811.75,8.65"/>
        <lane id=":10/0_1_1" index="1" speed="13.90" length="22.70" shape="815.05,31.35 815.05,24.61 815.05,20.00 815.05,15.39 815.05,8.65"/>
        <lane id=":10/0_1_2" index="2" speed="13.90" length="22.70" shape="818.35,31.35 818.35,24.61 818.35,20.00 818.35,15.39 818.35,8.65"/>
    </edge>
    <edge id=":10/0_4" function="internal">
        <lane id=":10/0_4_0" index="0" speed="13.90" length="20.97" shape="818.35,31.35 819.16,25.66 821.60,21.60 825.66,19.16 831.35,18.35"/>
    </edge>
    <edge id=":10/0_5" function="internal">
        <lane id=":10/0_5_0" index="0" speed="13.90" length="5.00" shape="831.35,28.25 829.99,28.44 829.02,29.02 828.44,29.99 828.25,31.35"/>
    </edge>
    <edge id=":10/0_6" function="internal">
        <lane id=":10/0_6_0" index="0" speed="13.90" length="22.70" shape="831.35,24.95 824.61,24.95 820.00,24.95 815.39,24.95 808.65,24.95"/>
    </edge>
    <edge id=":10/0_7" function="internal">
        <lane id=":10/0_7_0" index="0" speed="13.90" length="20.97" shape="831.35,21.65 825.66,20.84 821.60,18.40 819.16,14.34 818.35,8.65"/>
    </edge>
    <edge id=":10/0_8" function="internal">
        <lane id=":10/0_8_0" index="0" speed="13.90" length="5.00" shape="828.25,8.65 828.44,10.01 829.02,10.98 829.99,11.56 831.35,11.75"/>
    </edge>
    <edge id=":10/0_9" function="internal">
        <lane id=":10/0_9_0" index="0" speed="13.90" length="22.70" shape="828.25,8.65 828.25,15.39 828.25,20.00 828.25,24.61 828.25,31.35"/>
        <lane id=":10/0_9_1" index="1" speed="13.90" length="22.70" shape="824.95,8.65 824.95,15.39 824.95,20.00 824.95,24.61 824.95,31.35"/>
        <lane id=":10/0_9_2" index="2" speed="13.90" length="22.70" shape="821.65,8.65 821.65,15.39 821.65,20.00 821.65,24.61 821.65,31.35"/>
    </edge>
    <edge id=":10/0_12" function="internal">
        <lane id=":10/0_12_0" index="0" speed="13.90" length="20.97" shape="821.65,8.65 820.84,14.34 818.40,18.40 814.34,20.84 808.65,21.65"/>
    </edge>
    <edge id=":10/0_13" function="internal">
        <lane id=":10/0_13_0" index="0" speed="13.90" length="5.00" shape="808.65,11.75 810.01,11.56 810.98,10.98 811.56,10.01 811.75,8.65"/>
    </edge>
    <edge id=":10/0_14" function="internal">
        <lane id=":10/0_14_0" index="0" speed="13.90" length="22.70" shape="808.65,15.05 815.39,15.05 820.00,15.05 824.61,15.05 831.35,15.05"/>
    </edge>
    <edge id=":10/0_15" function="internal">
        <lane id=":10/0_15_0" index="0" speed="13.90" length="20.97" shape="808.65,18.35 814.34,19.16 818.40,21.60 820.84,25.66 821.65,31.35"/>
    </edge>
    <edge id=":10/1_0" function="internal">
        <lane id=":10/1_0_0" index="0" speed="13.90" length="5.00" shape="811.75,101.35 811.56,99.99 810.98,99.02 810.01,98.44 808.65,98.25"/>
    </edge>
    <edge id=":10/1_1" function="internal">
        <lane id=":10/1_1_0" index="0" speed="13.90" length="22.70" shape="811.75,101.35 811.75,94.61 811.75,90.00 811.75,85.39 811.75,78.65"/>
        <lane id=":10/1_1_1" index="1" speed="13.90" length="22.70" shape="815.05,101.35 815.05,94.61 815.05,90.00 815.05,85.39 815.05,78.65"/>
        <lane id=":10/1_1_2" index="2" speed="13.90" length="22.70" shape="818.35,101.35 818.35,94.61 818.35,90.00 818.35,85.39 818.35,78.65"/>
    </edge>
    <edge id=":10/1_4" function="internal">
        <lane id=":10/1_4_0" index="0" speed="13.90" length="20.97" shape="818.35,101.35 819.16,95.66 821.60,91.60 825.66,89.16 831.35,88.35"/>
    </edge>
    <edge id=":10/1_5" function="internal">
        <lane id=":10/1_5_0" index="0" speed="13.90" length="5.00" shape="831.35,98.25 829.99,98.44 829.02,99.02 828.44,99.99 828.25,101.35"/>
    </edge>
    <edge id=":10/1_6" function="internal">
        <lane id=":10/1_6_0" index="0" speed="13.90" length="22.70" shape="831.35,94.95 824.61,94.95 820.00,94.95 815.39,94.95 808.65,94.95"/>
    </edge>
    <edge id=":10/1_7" function="internal">
        <lane id=":10/1_7_0" index="0" speed="13.90" length="20.97" shape="831.35,91.65 825.66,90.84 821.60,88.40 819.16,84.34 818.35,78.65"/>
    </edge>
    <edge id=":10/1_8" function="internal">
        <lane id=":10/1_8_0" index="0" speed="13.90" length="5.00" shape="828.25,78.65 828.44,80.01 829.02,80.98 829.99,81.56 831.35,81.75"/>
    </edge>
    <edge id=":10/1_9" function="internal">
        <lane id=":10/1_9_0" index="0" speed="13.90" length="22.70" shape="828.25,78.65 828.25,85.39 828.25,90.00 828.25,94.61 828.25,101.35"/>
        <lane id=":10/1_9_1" index="1" speed="13.90" length="22.70" shape="824.95,78.65 824.95,85.39 824.95,90.00 824.95,94.61 824.95,101.35"/>
        <lane id=":10/1_9_2" index="2" speed="13.90" length="22.70" shape="821.65,78.65 821.65,85.39 821.65,90.00 821.65,94.61 821.65,101.35"/>
    </edge>
    <edge id=":10/1_12" function="internal">
        <lane id=":10/1_12_0" index="0" speed="13.90" length="20.97" shape="821.65,78.65 820.84,84.34 818.40,88.40 814.34,90.84 808.65,91.65"/>
    </edge>
    <edge id=":10/1_13" function="internal">
        <lane id=":10/1_13_0" index="0" speed="13.90" length="5.00" shape="808.65,81.75 810.01,81.56 810.98,80.98 811.56,80.01 811.75,78.65"/>
    </edge>
    <edge id=":10/1_14" function="internal">
        <lane id=":10/1_14_0" index="0" speed="13.90" length="22.70" shape="808.65,85.05 815.39,85.05 820.00,85.05 824.61,85.05 831.35,85.05"/>
    </edge>
    <edge id=":10/1_15" function="internal">
        <lane id=":10/1_15_0" index="0" speed="13.90" length="20.97" shape="808.65,88.35 814.34,89.16 818.40,91.60 820.84,95.66 821.65,101.35"/>
    </edge>
    <edge id=":10/2_0" function="internal">
        <lane id=":10/2_0_0" index="0" speed="13.90" length="5.00" shape="811.75,171.35 811.56,169.99 810.98,169.03 810.01,168.44 808.65,168.25"/>
    </edge>
    <edge id=":10/2_1" function="internal">
        <lane id=":10/2_1_0" index="0" speed="13.90" length="22.70" shape="811.75,171.35 811.75,164.61 811.75,160.00 811.75,155.39 811.75,148.65"/>
        <lane id=":10/2_1_1" index="1" speed="13.90" length="22.70" shape="815.05,171.35 815.05,164.61 815.05,160.00 815.05,155.39 815.05,148.65"/>
        <lane id=":10/2_1_2" index="2" speed="13.90" length="22.70" shape="818.35,171.35 818.35,164.61 818.35,160.00 818.35,155.39 818.35,148.65"/>
    </edge>
    <edge id=":10/2_4" function="internal">
        <lane id=":10/2_4_0" index="0" speed="13.90" length="20.97" shape="818.35,171.35 819.16,165.66 821.60,161.60 825.66,159.16 831.35,158.35"/>
    </edge>
    <edge id=":10/2_5" function="internal">
        <lane id=":10/2_5_0" index="0" speed="13.90" length="5.00" shape="831.35,168.25 829.99,168.44 829.02,169.03 828.44,169.99 828.25,171.35"/>
    </edge>
    <edge id=":10/2_6" function="internal">
        <lane id=":10/2_6_0" index="0" speed="13.90" length="22.70" shape="831.35,164.95 824.61,164.95 820.00,164.95 815.39,164.95 808.65,164.95"/>
    </edge>
    <edge id=":10/2_7" function="internal">
        <lane id=":10/2_7_0" index="0" speed="13.90" length="20.97" shape="831.35,161.65 825.66,160.84 821.60,158.40 819.16,154.34 818.35,148.65"/>
    </edge>
    <edge id=":10/2_8" function="internal">
        <lane id=":10/2_8_0" index="0" speed="13.90" length="5.00" shape="828.25,148.65 828.44,150.01 829.02,150.98 829.99,151.56 831.35,151.75"/>
    </edge>
    <edge id=":10/2_9" function="internal">
        <lane id=":10/2_9_0" index="0" speed="13.90" length="22.70" shape="828.25,148.65 828.25,155.39 828.25,160.00 828.25,164.61 828.25,171.35"/>
        <lane id=":10/2_9_1" index="1" speed="13.90" length="22.70" shape="824.95,148.65 824.95,155.39 824.95,160.00 824.95,164.61 824.95,171.35"/>
        <lane id=":10/2_9_2" index="2" speed="13.90" length="22.70" shape="821.65,148.65 821.65,155.39 821.65,160.00 821.65,164.61 821.65,171.35"/>
    </edge>
    <edge id=":10/2_12" function="internal">
        <lane id=":10/2_12_0" index="0" speed="13.90" length="20.97" shape="821.65,148.65 820.84,154.34 818.40,158.40 814.34,160.84 808.65,161.65"/>
    </edge>
    <edge id=":10/2_13" function="internal">
        <lane id=":10/2_13_0" index="0" speed="13.90" length="5.00" shape="808.65,151.75 810.01,151.56 810.98,150.98 811.56,150.01 811.75,148.65"/>
    </edge>
    <edge id=":10/2_14" function="internal">
        <lane id=":10/2_14_0" index="0" speed="13.90" length="22.70" shape="808.65,155.05 815.39,155.05 820.00,155.05 824.61,155.05 831.35,155.05"/>
    </edge>
    <edge id=":10/2_15" function="internal">
        <lane id=":10/2_15_0" index="0" speed="13.90" length="20.97" shape="808.65,158.35 814.34,159.16 818.40,161.60 820.84,165.66 821.65,171.35"/>
    </edge>
    <edge id=":11/0_0" function="internal">
        <lane id=":11/0_0_0" index="0" speed="13.90" length="5.00" shape="891.75,31.35 891.56,29.99 890.98,29.02 890.01,28.44 888.65,28.25"/>
    </edge>
    <edge id=":11/0_1" function="internal">
        <lane id=":11/0_1_0" index="0" speed="13.90" length="22.70" shape="891.75,31.35 891.75,24.61 891.75,20.00 891.75,15.39 891.75,8.65"/>
        <lane id=":11/0_1_1" index="1" speed="13.90" length="22.70" shape="895.05,31.35 895.05,24.61 895.05,20.00 895.05,15.39 895.05,8.65"/>
        <lane id=":11/0_1_2" index="2" speed="13.90" length="22.70" shape="898.35,31.35 898.35,24.61 898.35,20.00 898.35,15.39 898.35,8.65"/>
    </edge>
    <edge id=":11/0_4" function="internal">
        <lane id=":11/0_4_0" index="0" speed="13.90" length="20.97" shape="898.35,31.35 899.16,25.66 901.60,21.60 905.66,19.16 911.35,18.35"/>
    </edge>
    <edge id=":11/0_5" function="internal">
        <lane id=":11/0_5_0" index="0" speed="13.90" length="5.00" shape="911.35,28.25 909.99,28.44 909.02,29.02 908.44,29.99 908.25,31.35"/>
    </edge>
    <edge id=":11/0_6" function="internal">
        <lane id=":11/0_6_0" index="0" speed="13.90" length="22.70" shape="911.35,24.95 904.61,24.95 900.00,24.95 895.39,24.95 888.65,24.95"/>
    </edge>
    <edge id=":11/0_7" function="internal">
        <lane id=":11/0_7_0" index="0" speed="13.90" length="20.97" shape="911.35,21.65 905.66,20.84 901.60,18.40 899.16,14.34 898.35,8.65"/>
    </edge>
    <edge id=":11/0_8" function="internal">
        <lane id=":11/0_8_0" index="0" speed="13.90" length="5.00" shape="908.25,8.65 908.44,10.01 909.02,10.98 909.99,11.56 911.35,11.75"/>
    </edge>
    <edge id=":11/0_9" function="internal">
        <lane id=":11/0_9_0" index="0" speed="13.90" length="22.70" shape="908.25,8.65 908.25,15.39 908.25,20.00 908.25,24.61 908.25,31.35"/>
        <lane id=":11/0_9_1" index="1" speed="13.90" length="22.70" shape="904.95,8.65 904.95,15.39 904.95,20.00 904.95,24.61 904.95,31.35"/>
        <lane id=":11/0_9_2" index="2" speed="13.90" length="22.70" shape="901.65,8.65 901.65,15.39 901.65,20.00 901.65,24.61 901.65,31.35"/>
    </edge>
    <edge id=":11/0_12" function="internal">
        <lane id=":11/0_12_0" index="0" speed="13.90" length="20.97" shape="901.65,8.65 900.84,14.34 898.40,18.40 894.34,20.84 888.65,21.65"/>
    </edge>