<?xml version="1.0" encoding="UTF-8"?>

<!-- generated on Fri Aug 25 16:56:26 2017 by SUMO netgenerate Version 0.25.0
<?xml version="1.0" encoding="UTF-8"?>

<configuration xmlns:xsi="http://www.w3.org/2001/XMLSchema-instance" xsi:noNamespaceSchemaLocation="http://sumo.dlr.de/xsd/netgenerateConfiguration.xsd">

    <grid_network>
        <grid value="true"/>
        <grid.x-number value="10"/>
        <grid.y-number value="15"/>
        <grid.x-length value="275"/>
        <grid.y-length value="80"/>
        <grid.attach-length value="20"/>
    </grid_network>

    <output>
        <output-file value="manhattan.net.xml"/>
    </output>

    <tls_building>
        <tls.unset value=""/>
    </tls_building>

    <processing>
        <no-turnarounds value="true"/>
    </processing>

    <building_defaults>
        <default.lanenumber value="3"/>
        <default-junction-type value="right_before_left"/>
    </building_defaults>

    <random_number>
        <seed value="0"/>
    </random_number>

</configuration>
-->

<net version="0.25" xmlns:xsi="http://www.w3.org/2001/XMLSchema-instance" xsi:noNamespaceSchemaLocation="http://sumo.dlr.de/xsd/net_file.xsd">

    <location netOffset="0.00,0.00" convBoundary="0.00,0.00,2515.00,1160.00" origBoundary="0.00,0.00,2515.00,1160.00" projParameter="!"/>

    <edge id=":0/0_0" function="internal">
        <lane id=":0/0_0_0" index="0" speed="13.90" length="5.00" shape="11.75,31.35 11.56,29.99 10.98,29.02 10.01,28.44 8.65,28.25"/>
    </edge>
    <edge id=":0/0_1" function="internal">
        <lane id=":0/0_1_0" index="0" speed="13.90" length="23.02" shape="11.75,31.35 12.27,24.58 13.40,20.00 14.53,15.42 15.05,8.65"/>
        <lane id=":0/0_1_1" index="1" speed="13.90" length="23.02" shape="15.05,31.35 15.57,24.58 16.70,20.00 17.83,15.42 18.35,8.65"/>
    </edge>
    <edge id=":0/0_3" function="internal">
        <lane id=":0/0_3_0" index="0" speed="13.90" length="20.97" shape="18.35,31.35 19.16,25.66 21.60,21.60 25.66,19.16 31.35,18.35"/>
    </edge>
    <edge id=":0/0_4" function="internal">
        <lane id=":0/0_4_0" index="0" speed="13.90" length="5.00" shape="31.35,28.25 29.99,28.44 29.03,29.02 28.44,29.99 28.25,31.35"/>
    </edge>
    <edge id=":0/0_5" function="internal">
        <lane id=":0/0_5_0" index="0" speed="13.90" length="23.02" shape="31.35,28.25 24.58,27.73 20.00,26.60 15.42,25.47 8.65,24.95"/>
        <lane id=":0/0_5_1" index="1" speed="13.90" length="23.02" shape="31.35,24.95 24.58,24.43 20.00,23.30 15.42,22.17 8.65,21.65"/>
    </edge>
    <edge id=":0/0_7" function="internal">
        <lane id=":0/0_7_0" index="0" speed="13.90" length="20.97" shape="31.35,21.65 25.66,20.84 21.60,18.40 19.16,14.34 18.35,8.65"/>
    </edge>
    <edge id=":0/0_8" function="internal">
        <lane id=":0/0_8_0" index="0" speed="13.90" length="5.00" shape="28.25,8.65 28.44,10.01 29.02,10.97 29.99,11.56 31.35,11.75"/>
    </edge>
    <edge id=":0/0_9" function="internal">
        <lane id=":0/0_9_0" index="0" speed="13.90" length="23.02" shape="28.25,8.65 27.73,15.42 26.60,20.00 25.47,24.58 24.95,31.35"/>
        <lane id=":0/0_9_1" index="1" speed="13.90" length="23.02" shape="24.95,8.65 24.43,15.42 23.30,20.00 22.17,24.58 21.65,31.35"/>
    </edge>
    <edge id=":0/0_11" function="internal">
        <lane id=":0/0_11_0" index="0" speed="13.90" length="20.97" shape="21.65,8.65 20.84,14.34 18.40,18.40 14.34,20.84 8.65,21.65"/>
    </edge>
    <edge id=":0/0_12" function="internal">
        <lane id=":0/0_12_0" index="0" speed="13.90" length="5.00" shape="8.65,11.75 10.01,11.56 10.98,10.98 11.56,10.01 11.75,8.65"/>
    </edge>
    <edge id=":0/0_13" function="internal">
        <lane id=":0/0_13_0" index="0" speed="13.90" length="23.02" shape="8.65,11.75 15.42,12.27 20.00,13.40 24.58,14.53 31.35,15.05"/>
        <lane id=":0/0_13_1" index="1" speed="13.90" length="23.02" shape="8.65,15.05 15.42,15.57 20.00,16.70 24.58,17.83 31.35,18.35"/>
    </edge>
    <edge id=":0/0_15" function="internal">
        <lane id=":0/0_15_0" index="0" speed="13.90" length="20.97" shape="8.65,18.35 14.34,19.16 18.40,21.60 20.84,25.66 21.65,31.35"/>
    </edge>
    <edge id=":0/1_0" function="internal">
        <lane id=":0/1_0_0" index="0" speed="13.90" length="5.00" shape="11.75,111.35 11.56,109.99 10.98,109.03 10.01,108.44 8.65,108.25"/>
    </edge>
    <edge id=":0/1_1" function="internal">
        <lane id=":0/1_1_0" index="0" speed="13.90" length="23.02" shape="11.75,111.35 12.27,104.58 13.40,100.00 14.53,95.42 15.05,88.65"/>
        <lane id=":0/1_1_1" index="1" speed="13.90" length="23.02" shape="15.05,111.35 15.57,104.58 16.70,100.00 17.83,95.42 18.35,88.65"/>
    </edge>
    <edge id=":0/1_3" function="internal">
        <lane id=":0/1_3_0" index="0" speed="13.90" length="20.97" shape="18.35,111.35 19.16,105.66 21.60,101.60 25.66,99.16 31.35,98.35"/>
    </edge>
    <edge id=":0/1_4" function="internal">
        <lane id=":0/1_4_0" index="0" speed="13.90" length="5.00" shape="31.35,108.25 29.99,108.44 29.02,109.03 28.44,109.99 28.25,111.35"/>
    </edge>
    <edge id=":0/1_5" function="internal">
        <lane id=":0/1_5_0" index="0" speed="13.90" length="23.02" shape="31.35,108.25 24.58,107.73 20.00,106.60 15.42,105.47 8.65,104.95"/>
        <lane id=":0/1_5_1" index="1" speed="13.90" length="23.02" shape="31.35,104.95 24.58,104.43 20.00,103.30 15.42,102.17 8.65,101.65"/>
    </edge>
    <edge id=":0/1_7" function="internal">
        <lane id=":0/1_7_0" index="0" speed="13.90" length="20.97" shape="31.35,101.65 25.66,100.84 21.60,98.40 19.16,94.34 18.35,88.65"/>
    </edge>
    <edge id=":0/1_8" function="internal">
        <lane id=":0/1_8_0" index="0" speed="13.90" length="5.00" shape="28.25,88.65 28.44,90.01 29.02,90.97 29.99,91.56 31.35,91.75"/>
    </edge>
    <edge id=":0/1_9" function="internal">
        <lane id=":0/1_9_0" index="0" speed="13.90" length="23.02" shape="28.25,88.65 27.73,95.42 26.60,100.00 25.47,104.58 24.95,111.35"/>
        <lane id=":0/1_9_1" index="1" speed="13.90" length="23.02" shape="24.95,88.65 24.43,95.42 23.30,100.00 22.17,104.58 21.65,111.35"/>
    </edge>
    <edge id=":0/1_11" function="internal">
        <lane id=":0/1_11_0" index="0" speed="13.90" length="20.97" shape="21.65,88.65 20.84,94.34 18.40,98.40 14.34,100.84 8.65,101.65"/>
    </edge>
    <edge id=":0/1_12" function="internal">
        <lane id=":0/1_12_0" index="0" speed="13.90" length="5.00" shape="8.65,91.75 10.01,91.56 10.97,90.97 11.56,90.01 11.75,88.65"/>
    </edge>
    <edge id=":0/1_13" function="internal">
        <lane id=":0/1_13_0" index="0" speed="13.90" length="23.02" shape="8.65,91.75 15.42,92.27 20.00,93.40 24.58,94.53 31.35,95.05"/>
        <lane id=":0/1_13_1" index="1" speed="13.90" length="23.02" shape="8.65,95.05 15.42,95.57 20.00,96.70 24.58,97.83 31.35,98.35"/>
    </edge>
    <edge id=":0/1_15" function="internal">
        <lane id=":0/1_15_0" index="0" speed="13.90" length="20.97" shape="8.65,98.35 14.34,99.16 18.40,101.60 20.84,105.66 21.65,111.35"/>
    </edge>
    <edge id=":0/10_0" function="internal">
        <lane id=":0/10_0_0" index="0" speed="13.90" length="5.00" shape="11.75,831.35 11.56,829.99 10.98,829.02 10.01,828.44 8.65,828.25"/>
    </edge>
    <edge id=":0/10_1" function="internal">
        <lane id=":0/10_1_0" index="0" speed="13.90" length="23.02" shape="11.75,831.35 12.27,824.58 13.40,820.00 14.53,815.42 15.05,808.65"/>
        <lane id=":0/10_1_1" index="1" speed="13.90" length="23.02" shape="15.05,831.35 15.57,824.58 16.70,820.00 17.83,815.42 18.35,808.65"/>
    </edge>
    <edge id=":0/10_3" function="internal">
        <lane id=":0/10_3_0" index="0" speed="13.90" length="20.97" shape="18.35,831.35 19.16,825.66 21.60,821.60 25.66,819.16 31.35,818.35"/>
    </edge>
    <edge id=":0/10_4" function="internal">
        <lane id=":0/10_4_0" index="0" speed="13.90" length="5.00" shape="31.35,828.25 29.99,828.44 29.02,829.02 28.44,829.99 28.25,831.35"/>
    </edge>
    <edge id=":0/10_5" function="internal">
        <lane id=":0/10_5_0" index="0" speed="13.90" length="23.02" shape="31.35,828.25 24.58,827.73 20.00,826.60 15.42,825.47 8.65,824.95"/>
        <lane id=":0/10_5_1" index="1" speed="13.90" length="23.02" shape="31.35,824.95 24.58,824.43 20.00,823.30 15.42,822.17 8.65,821.65"/>
    </edge>
    <edge id=":0/10_7" function="internal">
        <lane id=":0/10_7_0" index="0" speed="13.90" length="20.97" shape="31.35,821.65 25.66,820.84 21.60,818.40 19.16,814.34 18.35,808.65"/>
    </edge>
    <edge id=":0/10_8" function="internal">
        <lane id=":0/10_8_0" index="0" speed="13.90" length="5.00" shape="28.25,808.65 28.44,810.01 29.02,810.98 29.99,811.56 31.35,811.75"/>
    </edge>
    <edge id=":0/10_9" function="internal">
        <lane id=":0/10_9_0" index="0" speed="13.90" length="23.02" shape="28.25,808.65 27.73,815.42 26.60,820.00 25.47,824.58 24.95,831.35"/>
        <lane id=":0/10_9_1" index="1" speed="13.90" length="23.02" shape="24.95,808.65 24.43,815.42 23.30,820.00 22.17,824.58 21.65,831.35"/>
    </edge>
    <edge id=":0/10_11" function="internal">
        <lane id=":0/10_11_0" index="0" speed="13.90" length="20.97" shape="21.65,808.65 20.84,814.34 18.40,818.40 14.34,820.84 8.65,821.65"/>
    </edge>
    <edge id=":0/10_12" function="internal">
        <lane id=":0/10_12_0" index="0" speed="13.90" length="5.00" shape="8.65,811.75 10.01,811.56 10.98,810.98 11.56,810.01 11.75,808.65"/>
    </edge>
    <edge id=":0/10_13" function="internal">
        <lane id=":0/10_13_0" index="0" speed="13.90" length="23.02" shape="8.65,811.75 15.42,812.27 20.00,813.40 24.58,814.53 31.35,815.05"/>
        <lane id=":0/10_13_1" index="1" speed="13.90" length="23.02" shape="8.65,815.05 15.42,815.57 20.00,816.70 24.58,817.83 31.35,818.35"/>
    </edge>
    <edge id=":0/10_15" function="internal">
        <lane id=":0/10_15_0" index="0" speed="13.90" length="20.97" shape="8.65,818.35 14.34,819.16 18.40,821.60 20.84,825.66 21.65,831.35"/>
    </edge>
    <edge id=":0/11_0" function="internal">
        <lane id=":0/11_0_0" index="0" speed="13.90" length="5.00" shape="11.75,911.35 11.56,909.99 10.98,909.02 10.01,908.44 8.65,908.25"/>
    </edge>
    <edge id=":0/11_1" function="internal">
        <lane id=":0/11_1_0" index="0" speed="13.90" length="23.02" shape="11.75,911.35 12.27,904.58 13.40,900.00 14.53,895.42 15.05,888.65"/>
        <lane id=":0/11_1_1" index="1" speed="13.90" length="23.02" shape="15.05,911.35 15.57,904.58 16.70,900.00 17.83,895.42 18.35,888.65"/>
    </edge>
    <edge id=":0/11_3" function="internal">
        <lane id=":0/11_3_0" index="0" speed="13.90" length="20.97" shape="18.35,911.35 19.16,905.66 21.60,901.60 25.66,899.16 31.35,898.35"/>
    </edge>
    <edge id=":0/11_4" function="internal">
        <lane id=":0/11_4_0" index="0" speed="13.90" length="5.00" shape="31.35,908.25 29.99,908.44 29.02,909.02 28.44,909.99 28.25,911.35"/>
    </edge>
    <edge id=":0/11_5" function="internal">
        <lane id=":0/11_5_0" index="0" speed="13.90" length="23.02" shape="31.35,908.25 24.58,907.73 20.00,906.60 15.42,905.47 8.65,904.95"/>
        <lane id=":0/11_5_1" index="1" speed="13.90" length="23.02" shape="31.35,904.95 24.58,904.43 20.00,903.30 15.42,902.17 8.65,901.65"/>
    </edge>
    <edge id=":0/11_7" function="internal">
        <lane id=":0/11_7_0" index="0" speed="13.90" length="20.97" shape="31.35,901.65 25.66,900.84 21.60,898.40 19.16,894.34 18.35,888.65"/>
    </edge>
    <edge id=":0/11_8" function="internal">
        <lane id=":0/11_8_0" index="0" speed="13.90" length="5.00" shape="28.25,888.65 28.44,890.01 29.02,890.98 29.99,891.56 31.35,891.75"/>
    </edge>
    <edge id=":0/11_9" function="internal">
        <lane id=":0/11_9_0" index="0" speed="13.90" length="23.02" shape="28.25,888.65 27.73,895.42 26.60,900.00 25.47,904.58 24.95,911.35"/>
        <lane id=":0/11_9_1" index="1" speed="13.90" length="23.02" shape="24.95,888.65 24.43,895.42 23.30,900.00 22.17,904.58 21.65,911.35"/>
    </edge>
    <edge id=":0/11_11" function="internal">
        <lane id=":0/11_11_0" index="0" speed="13.90" length="20.97" shape="21.65,888.65 20.84,894.34 18.40,898.40 14.34,900.84 8.65,901.65"/>
    </edge>
    <edge id=":0/11_12" function="internal">
        <lane id=":0/11_12_0" index="0" speed="13.90" length="5.00" shape="8.65,891.75 10.01,891.56 10.98,890.98 11.56,890.01 11.75,888.65"/>
    </edge>
    <edge id=":0/11_13" function="internal">
        <lane id=":0/11_13_0" index="0" speed="13.90" length="23.02" shape="8.65,891.75 15.42,892.27 20.00,893.40 24.58,894.53 31.35,895.05"/>
        <lane id=":0/11_13_1" index="1" speed="13.90" length="23.02" shape="8.65,895.05 15.42,895.57 20.00,896.70 24.58,897.83 31.35,898.35"/>
    </edge>
    <edge id=":0/11_15" function="internal">
        <lane id=":0/11_15_0" index="0" speed="13.90" length="20.97" shape="8.65,898.35 14.34,899.16 18.40,901.60 20.84,905.66 21.65,911.35"/>
    </edge>
    <edge id=":0/12_0" function="internal">
        <lane id=":0/12_0_0" index="0" speed="13.90" length="5.00" shape="11.75,991.35 11.56,989.99 10.98,989.02 10.01,988.44 8.65,988.25"/>
    </edge>
    <edge id=":0/12_1" function="internal">
        <lane id=":0/12_1_0" index="0" speed="13.90" length="23.02" shape="11.75,991.35 12.27,984.58 13.40,980.00 14.53,975.42 15.05,968.65"/>
        <lane id=":0/12_1_1" index="1" speed="13.90" length="23.02" shape="15.05,991.35 15.57,984.58 16.70,980.00 17.83,975.42 18.35,968.65"/>
    </edge>
    <edge id=":0/12_3" function="internal">
        <lane id=":0/12_3_0" index="0" speed="13.90" length="20.97" shape="18.35,991.35 19.16,985.66 21.60,981.60 25.66,979.16 31.35,978.35"/>
    </edge>
    <edge id=":0/12_4" function="internal">
        <lane id=":0/12_4_0" index="0" speed="13.90" length="5.00" shape="31.35,988.25 29.99,988.44 29.03,989.02 28.44,989.99 28.25,991.35"/>
    </edge>
    <edge id=":0/12_5" function="internal">
        <lane id=":0/12_5_0" index="0" speed="13.90" length="23.02" shape="31.35,988.25 24.58,987.73 20.00,986.60 15.42,985.47 8.65,984.95"/>
        <lane id=":0/12_5_1" index="1" speed="13.90" length="23.02" shape="31.35,984.95 24.58,984.43 20.00,983.30 15.42,982.17 8.65,981.65"/>
    </edge>
    <edge id=":0/12_7" function="internal">
        <lane id=":0/12_7_0" index="0" speed="13.90" length="20.97" shape="31.35,981.65 25.66,980.84 21.60,978.40 19.16,974.34 18.35,968.65"/>
    </edge>
    <edge id=":0/12_8" function="internal">
        <lane id=":0/12_8_0" index="0" speed="13.90" length="5.00" shape="28.25,968.65 28.44,970.01 29.02,970.98 29.99,971.56 31.35,971.75"/>
    </edge>
    <edge id=":0/12_9" function="internal">
        <lane id=":0/12_9_0" index="0" speed="13.90" length="23.02" shape="28.25,968.65 27.73,975.42 26.60,980.00 25.47,984.58 24.95,991.35"/>
        <lane id=":0/12_9_1" index="1" speed="13.90" length="23.02" shape="24.95,968.65 24.43,975.42 23.30,980.00 22.17,984.58 21.65,991.35"/>
    </edge>
    <edge id=":0/12_11" function="internal">
        <lane id=":0/12_11_0" index="0" speed="13.90" length="20.97" shape="21.65,968.65 20.84,974.34 18.40,978.40 14.34,980.84 8.65,981.65"/>
    </edge>
    <edge id=":0/12_12" function="internal">
        <lane id=":0/12_12_0" index="0" speed="13.90" length="5.00" shape="8.65,971.75 10.01,971.56 10.98,970.98 11.56,970.01 11.75,968.65"/>
    </edge>
    <edge id=":0/12_13" function="internal">
        <lane id=":0/12_13_0" index="0" speed="13.90" length="23.02" shape="8.65,971.75 15.42,972.27 20.00,973.40 24.58,974.53 31.35,975.05"/>
        <lane id=":0/12_13_1" index="1" speed="13.90" length="23.02" shape="8.65,975.05 15.42,975.57 20.00,976.70 24.58,977.83 31.35,978.35"/>
    </edge>
    <edge id=":0/12_15" function="internal">
        <lane id=":0/12_15_0" index="0" speed="13.90" length="20.97" shape="8.65,978.35 14.34,979.16 18.40,981.60 20.84,985.66 21.65,991.35"/>
    </edge>
    <edge id=":0/13_0" function="internal">
        <lane id=":0/13_0_0" index="0" speed="13.90" length="5.00" shape="11.75,1071.35 11.56,1069.99 10.98,1069.03 10.01,1068.44 8.65,1068.25"/>
    </edge>
    <edge id=":0/13_1" function="internal">
        <lane id=":0/13_1_0" index="0" speed="13.90" length="23.02" shape="11.75,1071.35 12.27,1064.58 13.40,1060.00 14.53,1055.42 15.05,1048.65"/>
        <lane id=":0/13_1_1" index="1" speed="13.90" length="23.02" shape="15.05,1071.35 15.57,1064.58 16.70,1060.00 17.83,1055.42 18.35,1048.65"/>
    </edge>
    <edge id=":0/13_3" function="internal">
        <lane id=":0/13_3_0" index="0" speed="13.90" length="20.97" shape="18.35,1071.35 19.16,1065.66 21.60,1061.60 25.66,1059.16 31.35,1058.35"/>
    </edge>
    <edge id=":0/13_4" function="internal">
        <lane id=":0/13_4_0" index="0" speed="13.90" length="5.00" shape="31.35,1068.25 29.99,1068.44 29.02,1069.03 28.44,1069.99 28.25,1071.35"/>
    </edge>
    <edge id=":0/13_5" function="internal">
        <lane id=":0/13_5_0" index="0" speed="13.90" length="23.02" shape="31.35,1068.25 24.58,1067.73 20.00,1066.60 15.42,1065.47 8.65,1064.95"/>
        <lane id=":0/13_5_1" index="1" speed="13.90" length="23.02" shape="31.35,1064.95 24.58,1064.43 20.00,1063.30 15.42,1062.17 8.65,1061.65"/>
    </edge>
    <edge id=":0/13_7" function="internal">
        <lane id=":0/13_7_0" index="0" speed="13.90" length="20.97" shape="31.35,1061.65 25.66,1060.84 21.60,1058.40 19.16,1054.34 18.35,1048.65"/>
    </edge>
    <edge id=":0/13_8" function="internal">
        <lane id=":0/13_8_0" index="0" speed="13.90" length="5.00" shape="28.25,1048.65 28.44,1050.01 29.02,1050.97 29.99,1051.56 31.35,1051.75"/>
    </edge>
    <edge id=":0/13_9" function="internal">
        <lane id=":0/13_9_0" index="0" speed="13.90" length="23.02" shape="28.25,1048.65 27.73,1055.42 26.60,1060.00 25.47,1064.58 24.95,1071.35"/>
        <lane id=":0/13_9_1" index="1" speed="13.90" length="23.02" shape="24.95,1048.65 24.43,1055.42 23.30,1060.00 22.17,1064.58 21.65,1071.35"/>
    </edge>
    <edge id=":0/13_11" function="internal">
        <lane id=":0/13_11_0" index="0" speed="13.90" length="20.97" shape="21.65,1048.65 20.84,1054.34 18.40,1058.40 14.34,1060.84 8.65,1061.65"/>
    </edge>
    <edge id=":0/13_12" function="internal">
        <lane id=":0/13_12_0" index="0" speed="13.90" length="5.00" shape="8.65,1051.75 10.01,1051.56 10.98,1050.97 11.56,1050.01 11.75,1048.65"/>
    </edge>
    <edge id=":0/13_13" function="internal">
        <lane id=":0/13_13_0" index="0" speed="13.90" length="23.02" shape="8.65,1051.75 15.42,1052.27 20.00,1053.40 24.58,1054.53 31.35,1055.05"/>
        <lane id=":0/13_13_1" index="1" speed="13.90" length="23.02" shape="8.65,1055.05 15.42,1055.57 20.00,1056.70 24.58,1057.83 31.35,1058.35"/>
    </edge>
    <edge id=":0/13_15" function="internal">
        <lane id=":0/13_15_0" index="0" speed="13.90" length="20.97" shape="8.65,1058.35 14.34,1059.16 18.40,1061.60 20.84,1065.66 21.65,1071.35"/>
    </edge>
    <edge id=":0/14_0" function="internal">
        <lane id=":0/14_0_0" index="0" speed="13.90" length="5.00" shape="11.75,1151.35 11.56,1149.99 10.98,1149.03 10.01,1148.44 8.65,1148.25"/>
    </edge>
    <edge id=":0/14_1" function="internal">
        <lane id=":0/14_1_0" index="0" speed="13.90" length="23.02" shape="11.75,1151.35 12.27,1144.58 13.40,1140.00 14.53,1135.42 15.05,1128.65"/>
        <lane id=":0/14_1_1" index="1" speed="13.90" length="23.02" shape="15.05,1151.35 15.57,1144.58 16.70,1140.00 17.83,1135.42 18.35,1128.65"/>
    </edge>
    <edge id=":0/14_3" function="internal">
        <lane id=":0/14_3_0" index="0" speed="13.90" length="20.97" shape="18.35,1151.35 19.16,1145.66 21.60,1141.60 25.66,1139.16 31.35,1138.35"/>
    </edge>
    <edge id=":0/14_4" function="internal">
        <lane id=":0/14_4_0" index="0" speed="13.90" length="5.00" shape="31.35,1148.25 29.99,1148.44 29.02,1149.03 28.44,1149.99 28.25,1151.35"/>
    </edge>
    <edge id=":0/14_5" function="internal">
        <lane id=":0/14_5_0" index="0" speed="13.90" length="23.02" shape="31.35,1148.25 24.58,1147.73 20.00,1146.60 15.42,1145.47 8.65,1144.95"/>
        <lane id=":0/14_5_1" index="1" speed="13.90" length="23.02" shape="31.35,1144.95 24.58,1144.43 20.00,1143.30 15.42,1142.17 8.65,1141.65"/>
    </edge>
    <edge id=":0/14_7" function="internal">
        <lane id=":0/14_7_0" index="0" speed="13.90" length="20.97" shape="31.35,1141.65 25.66,1140.84 21.60,1138.40 19.16,1134.34 18.35,1128.65"/>
    </edge>
    <edge id=":0/14_8" function="internal">
        <lane id=":0/14_8_0" index="0" speed="13.90" length="5.00" shape="28.25,1128.65 28.44,1130.01 29.02,1130.97 29.99,1131.56 31.35,1131.75"/>
    </edge>
    <edge id=":0/14_9" function="internal">
        <lane id=":0/14_9_0" index="0" speed="13.90" length="23.02" shape="28.25,1128.65 27.73,1135.42 26.60,1140.00 25.47,1144.58 24.95,1151.35"/>
        <lane id=":0/14_9_1" index="1" speed="13.90" length="23.02" shape="24.95,1128.65 24.43,1135.42 23.30,1140.00 22.17,1144.58 21.65,1151.35"/>
    </edge>
    <edge id=":0/14_11" function="internal">
        <lane id=":0/14_11_0" index="0" speed="13.90" length="20.97" shape="21.65,1128.65 20.84,1134.34 18.40,1138.40 14.34,1140.84 8.65,1141.65"/>
    </edge>
    <edge id=":0/14_12" function="internal">
        <lane id=":0/14_12_0" index="0" speed="13.90" length="5.00" shape="8.65,1131.75 10.01,1131.56 10.97,1130.97 11.56,1130.01 11.75,1128.65"/>
    </edge>
    <edge id=":0/14_13" function="internal">
        <lane id=":0/14_13_0" index="0" speed="13.90" length="23.02" shape="8.65,1131.75 15.42,1132.27 20.00,1133.40 24.58,1134.53 31.35,1135.05"/>
        <lane id=":0/14_13_1" index="1" speed="13.90" length="23.02" shape="8.65,1135.05 15.42,1135.57 20.00,1136.70 24.58,1137.83 31.35,1138.35"/>
    </edge>
    <edge id=":0/14_15" function="internal">
        <lane id=":0/14_15_0" index="0" speed="13.90" length="20.97" shape="8.65,1138.35 14.34,1139.16 18.40,1141.60 20.84,1145.66 21.65,1151.35"/>
    </edge>
    <edge id=":0/2_0" function="internal">
        <lane id=":0/2_0_0" index="0" speed="13.90" length="5.00" shape="11.75,191.35 11.56,189.99 10.98,189.03 10.01,188.44 8.65,188.25"/>
    </edge>
    <edge id=":0/2_1" function="internal">
        <lane id=":0/2_1_0" index="0" speed="13.90" length="23.02" shape="11.75,191.35 12.27,184.58 13.40,180.00 14.53,175.42 15.05,168.65"/>
        <lane id=":0/2_1_1" index="1" speed="13.90" length="23.02" shape="15.05,191.35 15.57,184.58 16.70,180.00 17.83,175.42 18.35,168.65"/>
    </edge>
    <edge id=":0/2_3" function="internal">
        <lane id=":0/2_3_0" index="0" speed="13.90" length="20.97" shape="18.35,191.35 19.16,185.66 21.60,181.60 25.66,179.16 31.35,178.35"/>
    </edge>
    <edge id=":0/2_4" function="internal">
        <lane id=":0/2_4_0" index="0" speed="13.90" length="5.00" shape="31.35,188.25 29.99,188.44 29.03,189.03 28.44,189.99 28.25,191.35"/>
    </edge>
    <edge id=":0/2_5" function="internal">
        <lane id=":0/2_5_0" index="0" speed="13.90" length="23.02" shape="31.35,188.25 24.58,187.73 20.00,186.60 15.42,185.47 8.65,184.95"/>
        <lane id=":0/2_5_1" index="1" speed="13.90" length="23.02" shape="31.35,184.95 24.58,184.43 20.00,183.30 15.42,182.17 8.65,181.65"/>
    </edge>
    <edge id=":0/2_7" function="internal">
        <lane id=":0/2_7_0" index="0" speed="13.90" length="20.97" shape="31.35,181.65 25.66,180.84 21.60,178.40 19.16,174.34 18.35,168.65"/>
    </edge>
    <edge id=":0/2_8" function="internal">
        <lane id=":0/2_8_0" index="0" speed="13.90" length="5.00" shape="28.25,168.65 28.44,170.01 29.02,170.97 29.99,171.56 31.35,171.75"/>
    </edge>
    <edge id=":0/2_9" function="internal">
        <lane id=":0/2_9_0" index="0" speed="13.90" length="23.02" shape="28.25,168.65 27.73,175.42 26.60,180.00 25.47,184.58 24.95,191.35"/>
        <lane id=":0/2_9_1" index="1" speed="13.90" length="23.02" shape="24.95,168.65 24.43,175.42 23.30,180.00 22.17,184.58 21.65,191.35"/>
    </edge>
    <edge id=":0/2_11" function="internal">
        <lane id=":0/2_11_0" index="0" speed="13.90" length="20.97" shape="21.65,168.65 20.84,174.34 18.40,178.40 14.34,180.84 8.65,181.65"/>
    </edge>
    <edge id=":0/2_12" function="internal">
        <lane id=":0/2_12_0" index="0" speed="13.90" length="5.00" shape="8.65,171.75 10.01,171.56 10.98,170.97 11.56,170.01 11.75,168.65"/>
    </edge>
    <edge id=":0/2_13" function="internal">
        <lane id=":0/2_13_0" index="0" speed="13.90" length="23.02" shape="8.65,171.75 15.42,172.27 20.00,173.40 24.58,174.53 31.35,175.05"/>
        <lane id=":0/2_13_1" index="1" speed="13.90" length="23.02" shape="8.65,175.05 15.42,175.57 20.00,176.70 24.58,177.83 31.35,178.35"/>
    </edge>
    <edge id=":0/2_15" function="internal">
        <lane id=":0/2_15_0" index="0" speed="13.90" length="20.97" shape="8.65,178.35 14.34,179.16 18.40,181.60 20.84,185.66 21.65,191.35"/>
    </edge>
    <edge id=":0/3_0" function="internal">
        <lane id=":0/3_0_0" index="0" speed="13.90" length="5.00" shape="11.75,271.35 11.56,269.99 10.98,269.02 10.01,268.44 8.65,268.25"/>
    </edge>
    <edge id=":0/3_1" function="internal">
        <lane id=":0/3_1_0" index="0" speed="13.90" length="23.02" shape="11.75,271.35 12.27,264.58 13.40,260.00 14.53,255.42 15.05,248.65"/>
        <lane id=":0/3_1_1" index="1" speed="13.90" length="23.02" shape="15.05,271.35 15.57,264.58 16.70,260.00 17.83,255.42 18.35,248.65"/>
    </edge>
    <edge id=":0/3_3" function="internal">
        <lane id=":0/3_3_0" index="0" speed="13.90" length="20.97" shape="18.35,271.35 19.16,265.66 21.60,261.60 25.66,259.16 31.35,258.35"/>
    </edge>
    <edge id=":0/3_4" function="internal">
        <lane id=":0/3_4_0" index="0" speed="13.90" length="5.00" shape="31.35,268.25 29.99,268.44 29.03,269.02 28.44,269.99 28.25,271.35"/>
    </edge>
    <edge id=":0/3_5" function="internal">
        <lane id=":0/3_5_0" index="0" speed="13.90" length="23.02" shape="31.35,268.25 24.58,267.73 20.00,266.60 15.42,265.47 8.65,264.95"/>
        <lane id=":0/3_5_1" index="1" speed="13.90" length="23.02" shape="31.35,264.95 24.58,264.43 20.00,263.30 15.42,262.17 8.65,261.65"/>
    </edge>
    <edge id=":0/3_7" function="internal">
        <lane id=":0/3_7_0" index="0" speed="13.90" length="20.97" shape="31.35,261.65 25.66,260.84 21.60,258.40 19.16,254.34 18.35,248.65"/>
    </edge>
    <edge id=":0/3_8" function="internal">
        <lane id=":0/3_8_0" index="0" speed="13.90" length="5.00" shape="28.25,248.65 28.44,250.01 29.02,250.97 29.99,251.56 31.35,251.75"/>
    </edge>
    <edge id=":0/3_9" function="internal">
        <lane id=":0/3_9_0" index="0" speed="13.90" length="23.02" shape="28.25,248.65 27.73,255.42 26.60,260.00 25.47,264.58 24.95,271.35"/>
        <lane id=":0/3_9_1" index="1" speed="13.90" length="23.02" shape="24.95,248.65 24.43,255.42 23.30,260.00 22.17,264.58 21.65,271.35"/>
    </edge>
    <edge id=":0/3_11" function="internal">
        <lane id=":0/3_11_0" index="0" speed="13.90" length="20.97" shape="21.65,248.65 20.84,254.34 18.40,258.40 14.34,260.84 8.65,261.65"/>
    </edge>
    <edge id=":0/3_12" function="internal">
        <lane id=":0/3_12_0" index="0" speed="13.90" length="5.00" shape="8.65,251.75 10.01,251.56 10.98,250.97 11.56,250.01 11.75,248.65"/>
    </edge>
    <edge id=":0/3_13" function="internal">
        <lane id=":0/3_13_0" index="0" speed="13.90" length="23.02" shape="8.65,251.75 15.42,252.27 20.00,253.40 24.58,254.53 31.35,255.05"/>
        <lane id=":0/3_13_1" index="1" speed="13.90" length="23.02" shape="8.65,255.05 15.42,255.57 20.00,256.70 24.58,257.83 31.35,258.35"/>
    </edge>
    <edge id=":0/3_15" function="internal">
        <lane id=":0/3_15_0" index="0" speed="13.90" length="20.97" shape="8.65,258.35 14.34,259.16 18.40,261.60 20.84,265.66 21.65,271.35"/>
    </edge>
    <edge id=":0/4_0" function="internal">
        <lane id=":0/4_0_0" index="0" speed="13.90" length="5.00" shape="11.75,351.35 11.56,349.99 10.98,349.02 10.01,348.44 8.65,348.25"/>
    </edge>
    <edge id=":0/4_1" function="internal">
        <lane id=":0/4_1_0" index="0" speed="13.90" length="23.02" shape="11.75,351.35 12.27,344.58 13.40,340.00 14.53,335.42 15.05,328.65"/>
        <lane id=":0/4_1_1" index="1" speed="13.90" length="23.02" shape="15.05,351.35 15.57,344.58 16.70,340.00 17.83,335.42 18.35,328.65"/>
    </edge>
    <edge id=":0/4_3" function="internal">
        <lane id=":0/4_3_0" index="0" speed="13.90" length="20.97" shape="18.35,351.35 19.16,345.66 21.60,341.60 25.66,339.16 31.35,338.35"/>
    </edge>
    <edge id=":0/4_4" function="internal">
        <lane id=":0/4_4_0" index="0" speed="13.90" length="5.00" shape="31.35,348.25 29.99,348.44 29.03,349.02 28.44,349.99 28.25,351.35"/>
    </edge>
    <edge id=":0/4_5" function="internal">
        <lane id=":0/4_5_0" index="0" speed="13.90" length="23.02" shape="31.35,348.25 24.58,347.73 20.00,346.60 15.42,345.47 8.65,344.95"/>
        <lane id=":0/4_5_1" index="1" speed="13.90" length="23.02" shape="31.35,344.95 24.58,344.43 20.00,343.30 15.42,342.17 8.65,341.65"/>
    </edge>
    <edge id=":0/4_7" function="internal">
        <lane id=":0/4_7_0" index="0" speed="13.90" length="20.97" shape="31.35,341.65 25.66,340.84 21.60,338.40 19.16,334.34 18.35,328.65"/>
    </edge>
    <edge id=":0/4_8" function="internal">
        <lane id=":0/4_8_0" index="0" speed="13.90" length="5.00" shape="28.25,328.65 28.44,330.01 29.02,330.98 29.99,331.56 31.35,331.75"/>
    </edge>
    <edge id=":0/4_9" function="internal">
        <lane id=":0/4_9_0" index="0" speed="13.90" length="23.02" shape="28.25,328.65 27.73,335.42 26.60,340.00 25.47,344.58 24.95,351.35"/>
        <lane id=":0/4_9_1" index="1" speed="13.90" length="23.02" shape="24.95,328.65 24.43,335.42 23.30,340.00 22.17,344.58 21.65,351.35"/>
    </edge>
    <edge id=":0/4_11" function="internal">