<?xml version="1.0" encoding="UTF-8"?>

<!-- generated on Fri Aug 25 16:39:31 2017 by SUMO duarouter Version 0.25.0
<?xml version="1.0" encoding="UTF-8"?>

<configuration xmlns:xsi="http://www.w3.org/2001/XMLSchema-instance" xsi:noNamespaceSchemaLocation="http://sumo.dlr.de/xsd/duarouterConfiguration.xsd">

    <input>
        <net-file value="manhattan.net.xml"/>
        <alternative-files value="manhattan_039.rou.alt.xml"/>
        <weight-files value="dump_039_900.xml"/>
    </input>

    <output>
        <output-file value="manhattan_040.rou.xml"/>
        <exit-times value="false"/>
    </output>

    <processing>
        <ignore-errors value="false"/>
        <max-alternatives value="5"/>
        <with-taz value="false"/>
        <routing-algorithm value="dijkstra"/>
        <weights.expand value="true"/>
        <gawron.beta value="0.9"/>
        <gawron.a value="0.5"/>
        <keep-all-routes value="false"/>
        <logit value="false"/>
        <logit.beta value="0.15"/>
        <logit.gamma value="1"/>
    </processing>

    <time>
        <begin value="0"/>
    </time>

    <report>
        <verbose value="false"/>
        <no-warnings value="false"/>
        <no-step-log value="true"/>
    </report>

    <random_number>
        <random value="false"/>
    </random_number>

</configuration>
-->

<routes xmlns:xsi="http://www.w3.org/2001/XMLSchema-instance" xsi:noNamespaceSchemaLocation="http://sumo.dlr.de/xsd/routes_file.xsd">
    <vehicle id="0" depart="0.00" departLane="best" departPos="random" departSpeed="random">
        <route edges="2/7to2/6 2/6to3/6 3/6to4/6 4/6to5/6 5/6to6/6 6/6to6/5 6/5to7/5"/>
    </vehicle>
    <vehicle id="1" depart="0.25" departLane="best" departPos="random" departSpeed="random">
        <route edges="8/1to7/1 7/1to7/2 7/2to7/3 7/3to7/4 7/4to7/5 7/5to7/6 7/6to7/7 7/7to6/7 6/7to5/7 5/7to5/8 5/8to5/9 5/9to5/10 5/10to4/10 4/10to4/11 4/11to3/11 3/11to3/12 3/12to2/12 2/12to2/13"/>
    </vehicle>
    <vehicle id="2" depart="0.50" departLane="best" departPos="random" departSpeed="random">
        <route edges="5/2to4/2 4/2to4/3 4/3to4/4 4/4to4/5 4/5to3/5 3/5to3/6 3/6to3/7 3/7to3/8 3/8to3/9 3/9to3/10 3/10to2/10"/>
    </vehicle>
    <vehicle id="3" depart="0.75" departLane="best" departPos="random" departSpeed="random">
        <route edges="9/8to8/8 8/8to7/8 7/8to6/8 6/8to5/8 5/8to4/8 4/8to3/8 3/8to2/8 2/8to2/9 2/9to3/9"/>
    </vehicle>
    <vehicle id="4" depart="1.00" departLane="best" departPos="random" departSpeed="random">
        <route edges="6/4to6/3 6/3to5/3 5/3to4/3 4/3to4/4 4/4to3/4 3/4to3/5 3/5to3/6 3/6to3/7 3/7to3/8 3/8to2/8"/>
    </vehicle>
    <vehicle id="5" depart="1.25" departLane="best" departPos="random" departSpeed="random">
        <route edges="7/5to7/4 7/4to7/3 7/3to7/2 7/2to6/2 6/2to5/2 5/2to4/2 4/2to3/2 3/2to2/2 2/2to1/2 1/2to1/1"/>
    </vehicle>
    <vehicle id="6" depart="1.50" departLane="best" departPos="random" departSpeed="random">
        <route edges="9/2to8/2 8/2to7/2 7/2to6/2 6/2to5/2 5/2to4/2 4/2to4/3 4/3to4/4 4/4to3/4 3/4to3/5 3/5to2/5 2/5to1/5 1/5to0/5"/>
    </vehicle>
    <vehicle id="7" depart="1.75" departLane="best" departPos="random" departSpeed="random">
        <route edges="8/1to7/1 7/1to7/2 7/2to7/3 7/3to7/4 7/4to7/5 7/5to7/6 7/6to8/6 8/6to8/7 8/7to8/8 8/8to8/9 8/9to8/10 8/10to8/11 8/11to8/12 8/12to8/13 8/13to9/13 9/13toright13"/>
    </vehicle>
    <vehicle id="8" depart="2.00" departLane="best" departPos="random" departSpeed="random">
        <route edges="6/5to6/6 6/6to6/7 6/7to5/7 5/7to5/8 5/8to5/9 5/9to5/10 5/10to4/10 4/10to4/11 4/11to3/11 3/11to3/12 3/12to2/12 2/12to1/12 1/12to1/11"/>
    </vehicle>
    <vehicle id="9" depart="2.25" departLane="best" departPos="random" departSpeed="random">
        <route edges="0/13to0/12 0/12to1/12 1/12to2/12 2/12to3/12 3/12to4/12 4/12to5/12 5/12to6/12 6/12to7/12 7/12to7/11 7/11to8/11 8/11to8/10"/>
    </vehicle>
    <vehicle id="10" depart="2.50" departLane="best" departPos="random" departSpeed="random">
        <route edges="6/10to7/10 7/10to7/9 7/9to7/8 7/8to7/7 7/7to7/6 7/6to7/5 7/5to7/4 7/4to7/3 7/3to7/2 7/2to7/1 7/1to6/1 6/1to5/1 5/1to4/1 4/1to3/1 3/1to2/1 2/1to1/1 1/1to1/2"/>
    </vehicle>
    <vehicle id="11" depart="2.75" departLane="best" departPos="random" departSpeed="random">
        <route edges="left10to0/10 0/10to0/9 0/9to0/8 0/8to0/7 0/7to0/6 0/6to0/5 0/5to0/4 0/4to0/3 0/3to1/3 1/3to2/3 2/3to3/3 3/3to4/3 4/3to5/3 5/3to6/3 6/3to7/3 7/3to8/3 8/3to9/3 9/3toright3"/>
    </vehicle>
    <vehicle id="12" depart="3.00" departLane="best" departPos="random" departSpeed="random">
        <route edges="1/2to0/2 0/2to0/3 0/3to1/3 1/3to2/3 2/3to3/3 3/3to4/3 4/3to5/3 5/3to5/4 5/4to6/4 6/4to6/5 6/5to6/6 6/6to7/6 7/6to7/7 7/7to7/8 7/8to7/9"/>
    </vehicle>
    <vehicle id="13" depart="3.25" departLane="best" departPos="random" departSpeed="random">
        <route edges="5/0to4/0 4/0to4/1 4/1to5/1 5/1to6/1 6/1to6/2 6/2to6/3 6/3to6/4 6/4to6/5 6/5to6/6 6/6to6/7 6/7to6/8 6/8to6/9 6/9to6/10 6/10to6/11 6/11to6/12 6/12to6/13 6/13to6/14"/>
    </vehicle>
    <vehicle id="14" depart="3.50" departLane="best" departPos="random" departSpeed="random">
        <route edges="7/13to7/12 7/12to7/11 7/11to6/11 6/11to5/11 5/11to5/10 5/10to4/10 4/10to3/10 3/10to3/11"/>
    </vehicle>
    <vehicle id="15" depart="3.75" departLane="best" departPos="random" departSpeed="random">
        <route edges="1/3to1/2 1/2to2/2 2/2to2/3 2/3to2/4 2/4to2/5 2/5to2/6 2/6to2/7 2/7to2/8 2/8to2/9 2/9to2/10 2/10to2/11 2/11to3/11 3/11to3/12 3/12to4/12 4/12to4/13 4/13to4/14 4/14to5/14 5/14to6/14 6/14to7/14 7/14to8/14 8/14to8/13"/>
    </vehicle>
    <vehicle id="16" depart="4.00" departLane="best" departPos="random" departSpeed="random">
        <route edges="9/0to8/0 8/0to8/1 8/1to8/2 8/2to8/3 8/3to8/4 8/4to8/5 8/5to8/6 8/6to8/7 8/7to8/8 8/8to8/9 8/9to7/9 7/9to6/9 6/9to6/8"/>
    </vehicle>
    <vehicle id="17" depart="4.25" departLane="best" departPos="random" departSpeed="random">
        <route edges="8/5to8/4 8/4to8/3 8/3to7/3 7/3to6/3 6/3to6/2 6/2to5/2 5/2to4/2 4/2to4/1 4/1to3/1 3/1to2/1 2/1to2/0 2/0to3/0"/>
    </vehicle>
    <vehicle id="18" depart="4.50" departLane="best" departPos="random" departSpeed="random">
        <route edges="4/3to4/2 4/2to3/2 3/2to2/2 2/2to2/3 2/3to2/4 2/4to2/5 2/5to1/5 1/5to1/6 1/6to1/7 1/7to1/8 1/8to1/9 1/9to1/10 1/10to1/11"/>
    </vehicle>
    <vehicle id="19" depart="4.75" departLane="best" departPos="random" departSpeed="random">
        <route edges="1/13to1/14 1/14to2/14 2/14to2/13 2/13to2/12 2/12to2/11 2/11to2/10 2/10to2/9 2/9to2/8 2/8to3/8 3/8to3/7 3/7to3/6 3/6to3/5 3/5to4/5 4/5to4/4 4/4to5/4 5/4to6/4 6/4to7/4"/>
    </vehicle>
    <vehicle id="20" depart="5.00" departLane="best" departPos="random" departSpeed="random">
        <route edges="0/0to1/0 1/0to2/0 2/0to3/0 3/0to4/0 4/0to5/0 5/0to5/1 5/1to4/1"/>
    </vehicle>
    <vehicle id="21" depart="5.25" departLane="best" departPos="random" departSpeed="random">
        <route edges="top1to1/14 1/14to2/14 2/14to2/13 2/13to3/13 3/13to4/13 4/13to5/13 5/13to5/12 5/12to6/12 6/12to6/11 6/11to6/10 6/10to7/10 7/10to7/9"/>
    </vehicle>
    <vehicle id="22" depart="5.50" departLane="best" departPos="random" departSpeed="random">
        <route edges="7/8to7/7 7/7to6/7 6/7to5/7 5/7to4/7 4/7to4/8 4/8to4/9 4/9to3/9 3/9to2/9 2/9to2/10 2/10to1/10 1/10to0/10 0/10to0/11 0/11toleft11"/>
    </vehicle>
    <vehicle id="23" depart="5.75" departLane="best" departPos="random" departSpeed="random">
        <route edges="9/14to8/14 8/14to7/14 7/14to6/14 6/14to5/14 5/14to5/13 5/13to5/12 5/12to5/11 5/11to5/10 5/10to4/10 4/10to4/9 4/9to3/9 3/9to2/9 2/9to2/10"/>
    </vehicle>
    <vehicle id="24" depart="6.00" departLane="best" departPos="random" departSpeed="random">
        <route edges="bottom8to8/0 8/0to8/1 8/1to8/2 8/2to8/3 8/3to8/4 8/4to8/5 8/5to8/6 8/6to8/7 8/7to8/8 8/8to8/9 8/9to7/9 7/9to6/9 6/9to5/9 5/9to4/9 4/9to3/9 3/9to2/9 2/9to1/9"/>
    </vehicle>
    <vehicle id="25" depart="6.25" departLane="best" departPos="random" departSpeed="random">
        <route edges="top1to1/14 1/14to1/13 1/13to1/12 1/12to1/11 1/11to1/10 1/10to1/9 1/9to1/8 1/8to1/7 1/7to2/7 2/7to3/7 3/7to4/7 4/7to5/7 5/7to6/7 6/7to6/6 6/6to5/6"/>
    </vehicle>
    <vehicle id="26" depart="6.50" departLane="best" departPos="random" departSpeed="random">
        <route edges="8/10to9/10 9/10to9/11 9/11to8/11 8/11to7/11 7/11to6/11 6/11to5/11 5/11to4/11 4/11to3/11 3/11to2/11 2/11to1/11 1/11to0/11 0/11to0/12"/>
    </vehicle>
    <vehicle id="27" depart="6.75" departLane="best" departPos="random" departSpeed="random">
        <route edges="9/9to9/8 9/8to8/8 8/8to8/9 8/9to7/9 7/9to6/9 6/9to6/10 6/10to6/11 6/11to5/11 5/11to4/11 4/11to3/11 3/11to2/11 2/11to1/11"/>
    </vehicle>
    <vehicle id="28" depart="7.00" departLane="best" departPos="random" departSpeed="random">
        <route edges="bottom1to1/0 1/0to2/0 2/0to3/0 3/0to4/0 4/0to5/0 5/0to6/0 6/0to7/0 7/0to8/0 8/0to8/1 8/1to8/2 8/2to8/3 8/3to8/4 8/4to8/5 8/5to8/6 8/6to8/7 8/7to8/8 8/8to8/9 8/9to9/9 9/9to9/8"/>
    </vehicle>
    <vehicle id="29" depart="7.25" departLane="best" departPos="random" departSpeed="random">
        <route edges="7/4to7/3 7/3to6/3 6/3to5/3 5/3to4/3 4/3to3/3 3/3to2/3 2/3to2/4 2/4to2/5 2/5to1/5 1/5to1/6 1/6to1/7 1/7to1/8 1/8to1/9"/>
    </vehicle>
    <vehicle id="30" depart="7.50" departLane="best" departPos="random" departSpeed="random">
        <route edges="right12to9/12 9/12to9/11 9/11to9/10 9/10to9/9 9/9to9/8 9/8to9/7 9/7to9/6 9/6to9/5 9/5to9/4 9/4to8/4 8/4to8/3 8/3to7/3 7/3to6/3 6/3to5/3"/>
    </vehicle>
    <vehicle id="31" depart="7.75" departLane="best" departPos="random" departSpeed="random">
        <route edges="1/14to0/14 0/14to0/13 0/13to0/12 0/12to0/11 0/11to0/10 0/10to0/9 0/9to0/8 0/8to1/8 1/8to1/7 1/7to1/6 1/6to2/6 2/6to3/6 3/6to4/6 4/6to5/6 5/6to6/6 6/6to7/6 7/6to7/7"/>
    </vehicle>
    <vehicle id="32" depart="8.00" departLane="best" departPos="random" departSpeed="random">
        <route edges="3/5to3/4 3/4to4/4 4/4to5/4 5/4to5/5 5/5to5/6 5/6to5/7 5/7to5/8 5/8to5/9 5/9to5/10 5/10to5/11 5/11to5/12 5/12to5/13 5/13to6/13"/>
    </vehicle>
    <vehicle id="33" depart="8.25" departLane="best" departPos="random" departSpeed="random">
        <route edges="2/14to2/13 2/13to2/12 2/12to2/11 2/11to2/10 2/10to2/9 2/9to2/8 2/8to2/7 2/7to2/6 2/6to2/5 2/5to2/4 2/4to2/3 2/3to3/3 3/3to3/2 3/2to3/1 3/1to3/0 3/0to4/0 4/0to5/0 5/0to6/0"/>
    </vehicle>
    <vehicle id="34" depart="8.50" departLane="best" departPos="random" departSpeed="random">
        <route edges="8/2to8/3 8/3to7/3 7/3to6/3 6/3to5/3 5/3to4/3 4/3to4/2 4/2to3/2 3/2to2/2 2/2to1/2"/>
    </vehicle>
    <vehicle id="35" depart="8.75" departLane="best" departPos="random" departSpeed="random">
        <route edges="8/5to8/4 8/4to8/3 8/3to7/3 7/3to7/2 7/2to6/2 6/2to5/2 5/2to5/1 5/1to4/1 4/1to3/1 3/1to2/1 2/1to1/1 1/1to1/0 1/0to2/0"/>
    </vehicle>
    <vehicle id="36" depart="9.00" departLane="best" departPos="random" departSpeed="random">
        <route edges="8/11to7/11 7/11to7/10 7/10to7/9 7/9to7/8 7/8to7/7 7/7to7/6 7/6to7/5 7/5to7/4 7/4to7/3 7/3to7/2 7/2to6/2 6/2to6/1 6/1to5/1 5/1to4/1"/>
    </vehicle>
    <vehicle id="37" depart="9.25" departLane="best" departPos="random" departSpeed="random">
        <route edges="4/8to4/9 4/9to5/9 5/9to6/9 6/9to7/9 7/9to7/8 7/8to8/8 8/8to9/8 9/8to9/7 9/7to9/6 9/6to9/5 9/5to9/4 9/4to9/3 9/3to9/2 9/2to9/1 9/1toright1"/>
    </vehicle>
    <vehicle id="38" depart="9.50" departLane="best" departPos="random" departSpeed="random">
        <route edges="7/10to7/9 7/9to7/8 7/8to6/8 6/8to5/8 5/8to4/8 4/8to3/8 3/8to2/8 2/8to1/8 1/8to1/7 1/7to1/6 1/6to0/6 0/6to0/7"/>
    </vehicle>
    <vehicle id="39" depart="9.75" departLane="best" departPos="random" departSpeed="random">
        <route edges="6/3to6/4 6/4to5/4 5/4to4/4 4/4to3/4 3/4to3/5 3/5to2/5 2/5to1/5 1/5to1/6 1/6to1/7 1/7to1/8 1/8to1/9 1/9to1/10 1/10to1/11 1/11to1/12 1/12to0/12"/>
    </vehicle>
    <vehicle id="40" depart="10.00" departLane="best" departPos="random" departSpeed="random">
        <route edges="3/3to4/3 4/3to5/3 5/3to6/3 6/3to6/4 6/4to7/4 7/4to7/5"/>
    </vehicle>
    <vehicle id="41" depart="10.25" departLane="best" departPos="random" departSpeed="random">
        <route edges="3/0to4/0 4/0to4/1 4/1to3/1 3/1to2/1 2/1to2/2 2/2to1/2 1/2to0/2 0/2to0/3 0/3to0/4 0/4to0/5 0/5to0/6 0/6to0/7 0/7to0/8 0/8to0/9 0/9to0/10 0/10to0/11 0/11to1/11"/>
    </vehicle>
    <vehicle id="42" depart="10.50" departLane="best" departPos="random" departSpeed="random">
        <route edges="9/7to9/6 9/6to8/6 8/6to8/7 8/7to8/8 8/8to8/9 8/9to8/10 8/10to8/11 8/11to8/12 8/12to8/13 8/13to7/13 7/13to6/13 6/13to5/13 5/13to4/13 4/13to3/13 3/13to2/13 2/13to1/13 1/13to1/14 1/14to0/14 0/14to0/13"/>
    </vehicle>
    <vehicle id="43" depart="10.75" departLane="best" departPos="random" departSpeed="random">
        <route edges="8/6to7/6 7/6to6/6 6/6to5/6 5/6to4/6 4/6to3/6 3/6to2/6 2/6to2/5 2/5to1/5 1/5to1/4 1/4to1/3 1/3to1/2 1/2to1/1 1/1to2/1"/>
    </vehicle>
    <vehicle id="44" depart="11.00" departLane="best" departPos="random" departSpeed="random">
        <route edges="9/4to8/4 8/4to8/5 8/5to8/6 8/6to8/7 8/7to8/8 8/8to8/9 8/9to8/10 8/10to7/10 7/10to6/10 6/10to5/10 5/10to4/10 4/10to3/10 3/10to2/10 2/10to1/10 1/10to0/10 0/10to0/11 0/11toleft11"/>
    </vehicle>
    <vehicle id="45" depart="11.25" departLane="best" departPos="random" departSpeed="random">
        <route edges="7/14to6/14 6/14to5/14 5/14to4/14 4/14to3/14 3/14to2/14 2/14to1/14 1/14to0/14 0/14to0/13 0/13to0/12 0/12toleft12"/>
    </vehicle>
    <vehicle id="46" depart="11.50" departLane="best" departPos="random" departSpeed="random">
        <route edges="1/9to1/8 1/8to2/8 2/8to3/8 3/8to4/8 4/8to5/8 5/8to6/8 6/8to7/8 7/8to8/8 8/8to8/9 8/9to8/10 8/10to8/11"/>
    </vehicle>
    <vehicle id="47" depart="11.75" departLane="best" departPos="random" departSpeed="random">
        <route edges="bottom7to7/0 7/0to8/0 8/0to9/0 9/0to9/1 9/1to9/2 9/2to9/3 9/3to9/4 9/4to9/5 9/5to9/6 9/6to9/7 9/7to9/8 9/8to9/9 9/9to9/10 9/10to9/11 9/11to9/12 9/12to9/13 9/13to9/14 9/14toright14"/>
    </vehicle>
    <vehicle id="48" depart="12.00" departLane="best" departPos="random" departSpeed="random">
        <route edges="bottom8to8/0 8/0to7/0 7/0to6/0 6/0to5/0 5/0to4/0 4/0to3/0 3/0to2/0 2/0to1/0 1/0to0/0 0/0to0/1 0/1to0/2 0/2toleft2"/>
    </vehicle>
    <vehicle id="49" depart="12.25" departLane="best" departPos="random" departSpeed="random">
        <route edges="7/3to7/2 7/2to6/2 6/2to6/3 6/3to6/4 6/4to6/5 6/5to6/6 6/6to6/7 6/7to5/7 5/7to5/8 5/8to4/8 4/8to3/8 3/8to2/8"/>
    </vehicle>
    <vehicle id="50" depart="12.50" departLane="best" departPos="random" departSpeed="random">
        <route edges="4/6to4/5 4/5to4/4 4/4to5/4 5/4to6/4 6/4to7/4 7/4to8/4 8/4to8/3 8/3to8/2 8/2to8/1 8/1to8/0"/>
    </vehicle>
    <vehicle id="51" depart="12.75" departLane="best" departPos="random" departSpeed="random">
        <route edges="7/11to7/12 7/12to6/12 6/12to6/11 6/11to5/11 5/11to4/11 4/11to3/11 3/11to3/10 3/10to3/9 3/9to2/9"/>
    </vehicle>
    <vehicle id="52" depart="13.00" departLane="best" departPos="random" departSpeed="random">
        <route edges="2/3to3/3 3/3to3/4 3/4to3/5 3/5to3/6 3/6to3/7 3/7to3/8 3/8to3/9 3/9to3/10 3/10to3/11 3/11to3/12 3/12to4/12 4/12to4/13 4/13to4/14 4/14totop4"/>
    </vehicle>
    <vehicle id="53" depart="13.25" departLane="best" departPos="random" departSpeed="random">
        <route edges="2/13to2/14 2/14to3/14 3/14to3/13 3/13to3/12 3/12to4/12 4/12to5/12 5/12to5/11 5/11to5/10 5/10to5/9 5/9to5/8 5/8to5/7 5/7to5/6 5/6to5/5 5/5to5/4 5/4to6/4 6/4to6/5"/>
    </vehicle>
    <vehicle id="54" depart="13.50" departLane="best" departPos="random" departSpeed="random">
        <route edges="4/0to4/1 4/1to3/1 3/1to2/1 2/1to2/2 2/2to1/2 1/2to0/2 0/2to0/3 0/3to0/4 0/4to0/5 0/5to0/6"/>
    </vehicle>
    <vehicle id="55" depart="13.75" departLane="best" departPos="random" departSpeed="random">
        <route edges="7/4to8/4 8/4to8/5 8/5to8/6 8/6to8/7 8/7to8/8 8/8to8/9 8/9to8/10 8/10to7/10 7/10to6/10 6/10to6/11 6/11to5/11 5/11to5/12 5/12to5/13 5/13to5/14 5/14to4/14 4/14to4/13"/>
    </vehicle>
    <vehicle id="56" depart="14.00" departLane="best" departPos="random" departSpeed="random">
        <route edges="8/1to9/1 9/1to9/2 9/2to9/3 9/3to9/4 9/4to9/5 9/5to9/6 9/6to9/7 9/7to9/8 9/8to9/9 9/9to9/10 9/10to9/11 9/11to8/11 8/11to8/12 8/12to8/13 8/13to7/13 7/13to6/13 6/13to5/13 5/13to4/13 4/13to3/13 3/13to2/13 2/13to1/13 1/13to1/14"/>
    </vehicle>
    <vehicle id="57" depart="14.25" departLane="best" departPos="random" departSpeed="random">
        <route edges="7/8to7/7 7/7to6/7 6/7to5/7 5/7to4/7 4/7to3/7 3/7to2/7 2/7to1/7 1/7to1/8"/>
    </vehicle>
    <vehicle id="58" depart="14.50" departLane="best" departPos="random" departSpeed="random">
        <route edges="5/1to4/1 4/1to4/2 4/2to4/3 4/3to4/4 4/4to4/5 4/5to4/6 4/6to5/6 5/6to5/7 5/7to5/8 5/8to6/8 6/8to7/8 7/8to8/8 8/8to9/8 9/8to9/9"/>
    </vehicle>
    <vehicle id="59" depart="14.75" departLane="best" departPos="random" departSpeed="random">
        <route edges="8/2to9/2 9/2to9/1 9/1to8/1 8/1to7/1 7/1to6/1 6/1to5/1 5/1to5/0 5/0to4/0 4/0to3/0 3/0to2/0 2/0to1/0 1/0to0/0 0/0to0/1 0/1to1/1"/>
    </vehicle>
    <vehicle id="60" depart="15.00" departLane="best" departPos="random" departSpeed="random">
        <route edges="8/5to7/5 7/5to7/6 7/6to7/7 7/7to6/7 6/7to5/7 5/7to4/7 4/7to3/7 3/7to3/6"/>
    </vehicle>
    <vehicle id="61" depart="15.25" departLane="best" departPos="random" departSpeed="random">
        <route edges="9/11to9/10 9/10to9/9 9/9to8/9 8/9to7/9 7/9to6/9 6/9to5/9 5/9to4/9 4/9to3/9 3/9to2/9 2/9to1/9 1/9to0/9 0/9to0/10"/>
    </vehicle>
    <vehicle id="62" depart="15.50" departLane="best" departPos="random" departSpeed="random">
        <route edges="8/3to9/3 9/3to9/4 9/4to9/5 9/5to9/6 9/6to9/7 9/7to9/8 9/8to9/9 9/9to9/10 9/10to8/10 8/10to7/10 7/10to6/10 6/10to5/10 5/10to4/10 4/10to3/10 3/10to2/10 2/10to2/11 2/11to3/11"/>
    </vehicle>
    <vehicle id="63" depart="15.75" departLane="best" departPos="random" departSpeed="random">
        <route edges="3/14to3/13 3/13to4/13 4/13to5/13 5/13to6/13 6/13to7/13 7/13to7/12 7/12to7/11 7/11to8/11 8/11to8/10 8/10to9/10 9/10to9/11"/>
    </vehicle>
    <vehicle id="64" depart="16.00" departLane="best" departPos="random" departSpeed="random">
        <route edges="bottom5to5/0 5/0to5/1 5/1to5/2 5/2to5/3 5/3to5/4 5/4to5/5 5/5to5/6 5/6to5/7 5/7to5/8 5/8to5/9 5/9to5/10 5/10to5/11 5/11to5/12 5/12to4/12"/>
    </vehicle>
    <vehicle id="65" depart="16.25" departLane="best" departPos="random" departSpeed="random">
        <route edges="7/3to8/3 8/3to8/4 8/4to7/4 7/4to6/4 6/4to6/5 6/5to5/5 5/5to5/6 5/6to4/6 4/6to3/6"/>
    </vehicle>
    <vehicle id="66" depart="16.50" departLane="best" departPos="random" departSpeed="random">
        <route edges="top5to5/14 5/14to6/14 6/14to7/14 7/14to8/14 8/14to8/13 8/13to8/12 8/12to9/12 9/12to9/11 9/11to9/10 9/10to9/9 9/9to9/8 9/8to9/7 9/7to9/6 9/6to9/5 9/5to9/4 9/4to9/3"/>
    </vehicle>
    <vehicle id="67" depart="16.75" departLane="best" departPos="random" departSpeed="random">
        <route edges="5/7to6/7 6/7to6/6 6/6to5/6 5/6to5/5 5/5to5/4 5/4to5/3 5/3to5/2 5/2to4/2 4/2to4/1 4/1to3/1 3/1to3/0 3/0to2/0 2/0to1/0 1/0to1/1"/>
    </vehicle>
    <vehicle id="68" depart="17.00" departLane="best" departPos="random" departSpeed="random">
        <route edges="2/5to2/6 2/6to2/7 2/7to2/8 2/8to2/9 2/9to2/10 2/10to2/11 2/11to3/11 3/11to4/11 4/11to4/12 4/12to5/12 5/12to5/13 5/13to6/13 6/13to7/13"/>
    </vehicle>
    <vehicle id="69" depart="17.25" departLane="best" departPos="random" departSpeed="random">
        <route edges="3/8to4/8 4/8to5/8 5/8to5/9 5/9to5/10 5/10to6/10 6/10to7/10 7/10to7/11 7/11to8/11"/>
    </vehicle>
    <vehicle id="70" depart="17.50" departLane="best" departPos="random" departSpeed="random">
        <route edges="8/9to7/9 7/9to7/8 7/8to6/8 6/8to6/7 6/7to6/6 6/6to6/5 6/5to5/5 5/5to4/5 4/5to4/4 4/4to3/4 3/4to2/4 2/4to2/5"/>
    </vehicle>
    <vehicle id="71" depart="17.75" departLane="best" departPos="random" departSpeed="random">
        <route edges="1/14to0/14 0/14to0/13 0/13to1/13 1/13to2/13 2/13to3/13 3/13to4/13 4/13to5/13 5/13to6/13 6/13to7/13 7/13to8/13 8/13to8/12 8/12to9/12 9/12to9/11 9/11to9/10 9/10to9/9 9/9to9/8 9/8to8/8"/>
    </vehicle>
    <vehicle id="72" depart="18.00" departLane="best" departPos="random" departSpeed="random">
        <route edges="9/0to8/0 8/0to8/1 8/1to7/1 7/1to7/2 7/2to6/2 6/2to5/2 5/2to4/2 4/2to4/1"/>
    </vehicle>
    <vehicle id="73" depart="18.25" departLane="best" departPos="random" departSpeed="random">
        <route edges="7/10to6/10 6/10to5/10 5/10to4/10 4/10to4/9 4/9to3/9 3/9to2/9 2/9to2/8"/>
    </vehicle>
    <vehicle id="74" depart="18.50" departLane="best" departPos="random" departSpeed="random">
        <route edges="3/0to4/0 4/0to5/0 5/0to6/0 6/0to7/0 7/0to8/0 8/0to8/1 8/1to8/2 8/2to8/3 8/3to8/4 8/4to8/5 8/5to8/6 8/6to8/7 8/7to8/8 8/8to8/9 8/9to8/10 8/10to8/11 8/11to8/12 8/12to8/13 8/13to8/14 8/14totop8"/>
    </vehicle>
    <vehicle id="75" depart="18.75" departLane="best" departPos="random" departSpeed="random">
        <route edges="0/13to0/14 0/14to1/14 1/14to1/13 1/13to1/12 1/12to1/11 1/11to1/10 1/10to1/9 1/9to1/8 1/8to1/7 1/7to1/6 1/6to2/6 2/6to2/5 2/5to3/5 3/5to4/5 4/5to5/5 5/5to6/5 6/5to7/5 7/5to8/5 8/5to9/5 9/5to9/6"/>
    </vehicle>
    <vehicle id="76" depart="19.00" departLane="best" departPos="random" departSpeed="random">
        <route edges="9/11to8/11 8/11to8/10 8/10to7/10 7/10to7/9 7/9to6/9 6/9to5/9 5/9to4/9 4/9to3/9 3/9to2/9 2/9to1/9 1/9to0/9 0/9to0/8 0/8to0/7 0/7to0/6 0/6to1/6"/>
    </vehicle>
    <vehicle id="77" depart="19.25" departLane="best" departPos="random" departSpeed="random">
        <route edges="left0to0/0 0/0to0/1 0/1to0/2 0/2to0/3 0/3to0/4 0/4to0/5 0/5to0/6 0/6to0/7 0/7to0/8 0/8to0/9 0/9to0/10 0/10to0/11 0/11to0/12 0/12to0/13 0/13to0/14 0/14to1/14 1/14to2/14 2/14to3/14 3/14to4/14 4/14to5/14 5/14to6/14 6/14to7/14 7/14to8/14 8/14to9/14 9/14totop9"/>
    </vehicle>
    <vehicle id="78" depart="19.50" departLane="best" departPos="random" departSpeed="random">
        <route edges="4/0to3/0 3/0to3/1 3/1to3/2 3/2to4/2 4/2to5/2 5/2to6/2 6/2to6/3 6/3to6/4 6/4to6/5 6/5to6/6 6/6to6/7 6/7to6/8 6/8to6/9 6/9to6/10 6/10to6/11"/>
    </vehicle>
    <vehicle id="79" depart="19.75" departLane="best" departPos="random" departSpeed="random">
        <route edges="bottom9to9/0 9/0to9/1 9/1to9/2 9/2to9/3 9/3to9/4 9/4to9/5 9/5to9/6 9/6to9/7 9/7to9/8 9/8to9/9 9/9to9/10 9/10to9/11 9/11to8/11 8/11to8/12 8/12to8/13 8/13to7/13 7/13to6/13 6/13to6/14 6/14to7/14"/>
    </vehicle>
    <vehicle id="80" depart="20.00" departLane="best" departPos="random" departSpeed="random">
        <route edges="6/9to6/8 6/8to6/7 6/7to6/6 6/6to6/5 6/5to5/5 5/5to4/5 4/5to3/5 3/5to2/5 2/5to1/5 1/5to1/6"/>
    </vehicle>
    <vehicle id="81" depart="20.25" departLane="best" departPos="random" departSpeed="random">
        <route edges="3/11to3/12 3/12to4/12 4/12to4/11 4/11to4/10 4/10to4/9 4/9to4/8 4/8to4/7 4/7to4/6 4/6to5/6 5/6to6/6 6/6to6/5 6/5to7/5 7/5to7/4 7/4to7/3 7/3to7/2 7/2to7/1 7/1to7/0 7/0to8/0 8/0tobottom8"/>
    </vehicle>
    <vehicle id="82" depart="20.50" departLane="best" departPos="random" departSpeed="random">
        <route edges="4/4to4/5 4/5to5/5 5/5to6/5 6/5to7/5 7/5to7/4 7/4to7/3 7/3to7/2 7/2to7/1 7/1to7/0 7/0to8/0 8/0tobottom8"/>
    </vehicle>
    <vehicle id="83" depart="20.75" departLane="best" departPos="random" departSpeed="random">
        <route edges="8/0to8/1 8/1to7/1 7/1to6/1 6/1to5/1 5/1to4/1 4/1to3/1 3/1to2/1 2/1to2/2 2/2to2/3 2/3to2/4 2/4to2/5 2/5to2/6 2/6to1/6 1/6to1/5"/>
    </vehicle>
    <vehicle id="84" depart="21.00" departLane="best" departPos="random" departSpeed="random">
        <route edges="9/8to9/7 9/7to9/6 9/6to9/5 9/5to9/4 9/4to9/3 9/3to8/3 8/3to7/3 7/3to7/2 7/2to6/2 6/2to5/2 5/2to4/2"/>
    </vehicle>
    <vehicle id="85" depart="21.25" departLane="best" departPos="random" departSpeed="random">
        <route edges="2/1to1/1 1/1to1/0 1/0to2/0 2/0to3/0 3/0to4/0 4/0to5/0 5/0to6/0 6/0to6/1 6/1to7/1 7/1to8/1 8/1to8/0"/>
    </vehicle>
    <vehicle id="86" depart="21.50" departLane="best" departPos="random" departSpeed="random">
        <route edges="7/7to7/8 7/8to6/8 6/8to6/7 6/7to5/7 5/7to4/7 4/7to3/7 3/7to3/6 3/6to2/6 2/6to2/5 2/5to1/5 1/5to1/4 1/4to1/3 1/3to1/2 1/2to1/1 1/1to1/0"/>
    </vehicle>
    <vehicle id="87" depart="21.75" departLane="best" departPos="random" departSpeed="random">
        <route edges="9/5to9/6 9/6to9/7 9/7to8/7 8/7to8/8 8/8to7/8 7/8to6/8 6/8to5/8 5/8to5/9"/>
    </vehicle>
    <vehicle id="88" depart="22.00" departLane="best" departPos="random" departSpeed="random">
        <route edges="3/14to4/14 4/14to4/13 4/13to3/13 3/13to3/12 3/12to2/12 2/12to2/11 2/11to1/11 1/11to1/10 1/10to1/9 1/9to1/8 1/8to1/7 1/7to1/6 1/6to1/5 1/5to1/4 1/4to1/3"/>
    </vehicle>
    <vehicle id="89" depart="22.25" departLane="best" departPos="random" departSpeed="random">
        <route edges="8/7to8/8 8/8to7/8 7/8to6/8 6/8to6/7 6/7to5/7 5/7to5/6 5/6to5/5 5/5to5/4 5/4to4/4"/>
    </vehicle>
    <vehicle id="90" depart="22.50" departLane="best" departPos="random" departSpeed="random">
        <route edges="left5to0/5 0/5to0/6 0/6to0/7 0/7to0/8 0/8to1/8 1/8to1/9 1/9to2/9 2/9to3/9 3/9to4/9 4/9to5/9 5/9to6/9 6/9to6/10 6/10to7/10 7/10to7/11 7/11to6/11"/>
    </vehicle>
    <vehicle id="91" depart="22.75" departLane="best" departPos="random" departSpeed="random">
        <route edges="right4to9/4 9/4to9/5 9/5to9/6 9/6to9/7 9/7to9/8 9/8to9/9 9/9to9/10 9/10to9/11 9/11to8/11 8/11to7/11 7/11to6/11 6/11to5/11"/>
    </vehicle>
    <vehicle id="92" depart="23.00" departLane="best" departPos="random" departSpeed="random">
        <route edges="9/4to8/4 8/4to8/3 8/3to8/2 8/2to8/1 8/1to7/1 7/1to6/1 6/1to5/1 5/1to4/1 4/1to4/0 4/0to3/0 3/0to2/0 2/0to1/0 1/0to0/0"/>
    </vehicle>
    <vehicle id="93" depart="23.25" departLane="best" departPos="random" departSpeed="random">
        <route edges="9/14to9/13 9/13to9/12 9/12to9/11 9/11to9/10 9/10to9/9 9/9to9/8 9/8to9/7 9/7to9/6 9/6to9/5 9/5to9/4 9/4to9/3 9/3to9/2 9/2to8/2 8/2to7/2 7/2to6/2 6/2to5/2 5/2to4/2 4/2to4/1 4/1to3/1 3/1to3/0"/>
    </vehicle>
    <vehicle id="94" depart="23.50" departLane="best" departPos="random" departSpeed="random">
        <route edges="3/5to4/5 4/5to5/5 5/5to6/5 6/5to7/5 7/5to8/5 8/5to8/6"/>
    </vehicle>
    <vehicle id="95" depart="23.75" departLane="best" departPos="random" departSpeed="random">
        <route edges="8/1to9/1 9/1to9/2 9/2to9/3 9/3to9/4 9/4to9/5 9/5to9/6 9/6to9/7 9/7to9/8 9/8to9/9 9/9to9/10 9/10to8/10 8/10to7/10 7/10to6/10 6/10to5/10 5/10to4/10 4/10to4/11 4/11to3/11 3/11to3/12 3/12to2/12 2/12to1/12"/>
    </vehicle>
    <vehicle id="96" depart="24.00" departLane="best" departPos="random" departSpeed="random">
        <route edges="5/9to4/9 4/9to3/9 3/9to2/9 2/9to1/9 1/9to0/9 0/9toleft9"/>
    </vehicle>
    <vehicle id="97" depart="24.25" departLane="best" departPos="random" departSpeed="random">
        <route edges="9/5to9/4 9/4to8/4 8/4to8/5 8/5to8/6 8/6to8/7 8/7to8/8 8/8to8/9 8/9to8/10 8/10to8/11 8/11to7/11 7/11to6/11 6/11to5/11 5/11to4/11 4/11to3/11 3/11to2/11 2/11to2/12"/>
    </vehicle>
    <vehicle id="98" depart="24.50" departLane="best" departPos="random" departSpeed="random">
        <route edges="3/8to3/9 3/9to4/9 4/9to5/9 5/9to6/9 6/9to7/9 7/9to8/9 8/9to9/9 9/9to9/8"/>
    </vehicle>
    <vehicle id="99" depart="24.75" departLane="best" departPos="random" departSpeed="random">
        <route edges="4/13to4/12 4/12to5/12 5/12to5/13 5/13to5/14 5/14to6/14 6/14to7/14 7/14to8/14 8/14to8/13"/>
    </vehicle>
    <vehicle id="100" depart="25.00" departLane="best" departPos="random" departSpeed="random">
        <route edges="right7to9/7 9/7to9/8 9/8to9/9 9/9to8/9 8/9to8/10 8/10to7/10 7/10to6/10 6/10to5/10 5/10to4/10 4/10to4/11 4/11to4/12 4/12to5/12"/>
    </vehicle>
    <vehicle id="101" depart="25.25" departLane="best" departPos="random" departSpeed="random">
        <route edges="8/1to9/1 9/1to9/2 9/2to9/3 9/3to9/4 9/4to9/5 9/5to9/6 9/6to9/7 9/7to9/8 9/8to9/9 9/9to9/10 9/10to9/11 9/11to8/11 8/11to8/12 8/12to7/12 7/12to6/12 6/12to5/12 5/12to4/12 4/12to3/12 3/12to2/12 2/12to1/12 1/12to0/12"/>
    </vehicle>
    <vehicle id="102" depart="25.50" departLane="best" departPos="random" departSpeed="random">
        <route edges="6/8to6/7 6/7to5/7 5/7to4/7 4/7to3/7 3/7to2/7 2/7to1/7 1/7to0/7 0/7to0/8 0/8to0/9 0/9to0/10 0/10to0/11 0/11to0/12 0/12to0/13 0/13to0/14 0/14toleft14"/>
    </vehicle>
    <vehicle id="103" depart="25.75" departLane="best" departPos="random" departSpeed="random">
        <route edges="4/3to4/4 4/4to4/5 4/5to5/5 5/5to6/5 6/5to7/5 7/5to8/5 8/5to9/5 9/5to9/6 9/6to9/7 9/7to8/7"/>
    </vehicle>
    <vehicle id="104" depart="26.00" departLane="best" departPos="random" departSpeed="random">
        <route edges="2/0to3/0 3/0to3/1 3/1to3/2 3/2to3/3 3/3to3/4 3/4to3/5 3/5to4/5 4/5to4/6 4/6to4/7 4/7to4/8 4/8to4/9 4/9to4/10 4/10to4/11 4/11to5/11 5/11to6/11 6/11to7/11 7/11to8/11 8/11to9/11 9/11to9/12 9/12to8/12"/>
    </vehicle>
    <vehicle id="105" depart="26.25" departLane="best" departPos="random" departSpeed="random">
        <route edges="6/1to7/1 7/1to7/2 7/2to6/2 6/2to5/2 5/2to4/2 4/2to4/3 4/3to4/4 4/4to4/5 4/5to3/5 3/5to3/6 3/6to2/6 2/6to1/6"/>
    </vehicle>
    <vehicle id="106" depart="26.50" departLane="best" departPos="random" departSpeed="random">
        <route edges="2/10to2/11 2/11to3/11 3/11to3/10 3/10to4/10 4/10to5/10 5/10to6/10 6/10to7/10 7/10to8/10 8/10to9/10 9/10to9/9 9/9to9/8 9/8to9/7 9/7to9/6 9/6to9/5 9/5to9/4 9/4to9/3"/>
    </vehicle>
    <vehicle id="107" depart="26.75" departLane="best" departPos="random" departSpeed="random">