<?xml version="1.0" encoding="UTF-8"?>

<!-- generated on Tue Oct  9 12:13:24 2018 by SUMO netgenerate Version 0.25.0
<?xml version="1.0" encoding="UTF-8"?>

<configuration xmlns:xsi="http://www.w3.org/2001/XMLSchema-instance" xsi:noNamespaceSchemaLocation="http://sumo.dlr.de/xsd/netgenerateConfiguration.xsd">

    <grid_network>
        <grid value="true"/>
        <grid.x-number value="7"/>
        <grid.y-number value="7"/>
        <grid.x-length value="400"/>
        <grid.y-length value="400"/>
        <grid.attach-length value="20"/>
    </grid_network>

    <output>
        <output-file value="manhattan_100.net.xml"/>
    </output>

    <processing>
        <no-turnarounds value="true"/>
    </processing>

    <building_defaults>
        <default.lanenumber value="3"/>
        <default-junction-type value="allway_stop"/>
    </building_defaults>

    <random_number>
        <seed value="0"/>
    </random_number>

</configuration>
-->

<net version="0.25" xmlns:xsi="http://www.w3.org/2001/XMLSchema-instance" xsi:noNamespaceSchemaLocation="http://sumo.dlr.de/xsd/net_file.xsd">

    <location netOffset="0.00,0.00" convBoundary="0.00,0.00,2440.00,2440.00" origBoundary="0.00,0.00,2440.00,2440.00" projParameter="!"/>

    <edge id=":0/0_0" function="internal">
        <lane id=":0/0_0_0" index="0" speed="13.90" length="5.00" shape="11.75,31.35 11.56,29.99 10.98,29.02 10.01,28.44 8.65,28.25"/>
    </edge>
    <edge id=":0/0_1" function="internal">
        <lane id=":0/0_1_0" index="0" speed="13.90" length="22.70" shape="11.75,31.35 11.75,24.61 11.75,20.00 11.75,15.39 11.75,8.65"/>
        <lane id=":0/0_1_1" index="1" speed="13.90" length="22.70" shape="15.05,31.35 15.05,24.61 15.05,20.00 15.05,15.39 15.05,8.65"/>
        <lane id=":0/0_1_2" index="2" speed="13.90" length="22.70" shape="18.35,31.35 18.35,24.61 18.35,20.00 18.35,15.39 18.35,8.65"/>
    </edge>
    <edge id=":0/0_4" function="internal">
        <lane id=":0/0_4_0" index="0" speed="13.90" length="20.97" shape="18.35,31.35 19.16,25.66 21.60,21.60 25.66,19.16 31.35,18.35"/>
    </edge>
    <edge id=":0/0_5" function="internal">
        <lane id=":0/0_5_0" index="0" speed="13.90" length="5.00" shape="31.35,28.25 29.99,28.44 29.02,29.03 28.44,29.99 28.25,31.35"/>
    </edge>
    <edge id=":0/0_6" function="internal">
        <lane id=":0/0_6_0" index="0" speed="13.90" length="22.70" shape="31.35,24.95 24.61,24.95 20.00,24.95 15.39,24.95 8.65,24.95"/>
    </edge>
    <edge id=":0/0_7" function="internal">
        <lane id=":0/0_7_0" index="0" speed="13.90" length="20.97" shape="31.35,21.65 25.66,20.84 21.60,18.40 19.16,14.34 18.35,8.65"/>
    </edge>
    <edge id=":0/0_8" function="internal">
        <lane id=":0/0_8_0" index="0" speed="13.90" length="5.00" shape="28.25,8.65 28.44,10.01 29.03,10.98 29.99,11.56 31.35,11.75"/>
    </edge>
    <edge id=":0/0_9" function="internal">
        <lane id=":0/0_9_0" index="0" speed="13.90" length="22.70" shape="28.25,8.65 28.25,15.39 28.25,20.00 28.25,24.61 28.25,31.35"/>
        <lane id=":0/0_9_1" index="1" speed="13.90" length="22.70" shape="24.95,8.65 24.95,15.39 24.95,20.00 24.95,24.61 24.95,31.35"/>
        <lane id=":0/0_9_2" index="2" speed="13.90" length="22.70" shape="21.65,8.65 21.65,15.39 21.65,20.00 21.65,24.61 21.65,31.35"/>
    </edge>
    <edge id=":0/0_12" function="internal">
        <lane id=":0/0_12_0" index="0" speed="13.90" length="20.97" shape="21.65,8.65 20.84,14.34 18.40,18.40 14.34,20.84 8.65,21.65"/>
    </edge>
    <edge id=":0/0_13" function="internal">
        <lane id=":0/0_13_0" index="0" speed="13.90" length="5.00" shape="8.65,11.75 10.01,11.56 10.98,10.98 11.56,10.01 11.75,8.65"/>
    </edge>
    <edge id=":0/0_14" function="internal">
        <lane id=":0/0_14_0" index="0" speed="13.90" length="22.70" shape="8.65,15.05 15.39,15.05 20.00,15.05 24.61,15.05 31.35,15.05"/>
    </edge>
    <edge id=":0/0_15" function="internal">
        <lane id=":0/0_15_0" index="0" speed="13.90" length="20.97" shape="8.65,18.35 14.34,19.16 18.40,21.60 20.84,25.66 21.65,31.35"/>
    </edge>
    <edge id=":0/1_0" function="internal">
        <lane id=":0/1_0_0" index="0" speed="13.90" length="5.00" shape="11.75,431.35 11.56,429.99 10.98,429.02 10.01,428.44 8.65,428.25"/>
    </edge>
    <edge id=":0/1_1" function="internal">
        <lane id=":0/1_1_0" index="0" speed="13.90" length="22.70" shape="11.75,431.35 11.75,424.61 11.75,420.00 11.75,415.39 11.75,408.65"/>
        <lane id=":0/1_1_1" index="1" speed="13.90" length="22.70" shape="15.05,431.35 15.05,424.61 15.05,420.00 15.05,415.39 15.05,408.65"/>
        <lane id=":0/1_1_2" index="2" speed="13.90" length="22.70" shape="18.35,431.35 18.35,424.61 18.35,420.00 18.35,415.39 18.35,408.65"/>
    </edge>
    <edge id=":0/1_4" function="internal">
        <lane id=":0/1_4_0" index="0" speed="13.90" length="20.97" shape="18.35,431.35 19.16,425.66 21.60,421.60 25.66,419.16 31.35,418.35"/>
    </edge>
    <edge id=":0/1_5" function="internal">
        <lane id=":0/1_5_0" index="0" speed="13.90" length="5.00" shape="31.35,428.25 29.99,428.44 29.02,429.02 28.44,429.99 28.25,431.35"/>
    </edge>
    <edge id=":0/1_6" function="internal">
        <lane id=":0/1_6_0" index="0" speed="13.90" length="22.70" shape="31.35,424.95 24.61,424.95 20.00,424.95 15.39,424.95 8.65,424.95"/>
    </edge>
    <edge id=":0/1_7" function="internal">
        <lane id=":0/1_7_0" index="0" speed="13.90" length="20.97" shape="31.35,421.65 25.66,420.84 21.60,418.40 19.16,414.34 18.35,408.65"/>
    </edge>
    <edge id=":0/1_8" function="internal">
        <lane id=":0/1_8_0" index="0" speed="13.90" length="5.00" shape="28.25,408.65 28.44,410.01 29.03,410.98 29.99,411.56 31.35,411.75"/>
    </edge>
    <edge id=":0/1_9" function="internal">
        <lane id=":0/1_9_0" index="0" speed="13.90" length="22.70" shape="28.25,408.65 28.25,415.39 28.25,420.00 28.25,424.61 28.25,431.35"/>
        <lane id=":0/1_9_1" index="1" speed="13.90" length="22.70" shape="24.95,408.65 24.95,415.39 24.95,420.00 24.95,424.61 24.95,431.35"/>
        <lane id=":0/1_9_2" index="2" speed="13.90" length="22.70" shape="21.65,408.65 21.65,415.39 21.65,420.00 21.65,424.61 21.65,431.35"/>
    </edge>
    <edge id=":0/1_12" function="internal">
        <lane id=":0/1_12_0" index="0" speed="13.90" length="20.97" shape="21.65,408.65 20.84,414.34 18.40,418.40 14.34,420.84 8.65,421.65"/>
    </edge>
    <edge id=":0/1_13" function="internal">
        <lane id=":0/1_13_0" index="0" speed="13.90" length="5.00" shape="8.65,411.75 10.01,411.56 10.98,410.98 11.56,410.01 11.75,408.65"/>
    </edge>
    <edge id=":0/1_14" function="internal">
        <lane id=":0/1_14_0" index="0" speed="13.90" length="22.70" shape="8.65,415.05 15.39,415.05 20.00,415.05 24.61,415.05 31.35,415.05"/>
    </edge>
    <edge id=":0/1_15" function="internal">
        <lane id=":0/1_15_0" index="0" speed="13.90" length="20.97" shape="8.65,418.35 14.34,419.16 18.40,421.60 20.84,425.66 21.65,431.35"/>
    </edge>
    <edge id=":0/2_0" function="internal">
        <lane id=":0/2_0_0" index="0" speed="13.90" length="5.00" shape="11.75,831.35 11.56,829.99 10.98,829.02 10.01,828.44 8.65,828.25"/>
    </edge>
    <edge id=":0/2_1" function="internal">
        <lane id=":0/2_1_0" index="0" speed="13.90" length="22.70" shape="11.75,831.35 11.75,824.61 11.75,820.00 11.75,815.39 11.75,808.65"/>
        <lane id=":0/2_1_1" index="1" speed="13.90" length="22.70" shape="15.05,831.35 15.05,824.61 15.05,820.00 15.05,815.39 15.05,808.65"/>
        <lane id=":0/2_1_2" index="2" speed="13.90" length="22.70" shape="18.35,831.35 18.35,824.61 18.35,820.00 18.35,815.39 18.35,808.65"/>
    </edge>
    <edge id=":0/2_4" function="internal">
        <lane id=":0/2_4_0" index="0" speed="13.90" length="20.97" shape="18.35,831.35 19.16,825.66 21.60,821.60 25.66,819.16 31.35,818.35"/>
    </edge>
    <edge id=":0/2_5" function="internal">
        <lane id=":0/2_5_0" index="0" speed="13.90" length="5.00" shape="31.35,828.25 29.99,828.44 29.03,829.02 28.44,829.99 28.25,831.35"/>
    </edge>
    <edge id=":0/2_6" function="internal">
        <lane id=":0/2_6_0" index="0" speed="13.90" length="22.70" shape="31.35,824.95 24.61,824.95 20.00,824.95 15.39,824.95 8.65,824.95"/>
    </edge>
    <edge id=":0/2_7" function="internal">
        <lane id=":0/2_7_0" index="0" speed="13.90" length="20.97" shape="31.35,821.65 25.66,820.84 21.60,818.40 19.16,814.34 18.35,808.65"/>
    </edge>
    <edge id=":0/2_8" function="internal">
        <lane id=":0/2_8_0" index="0" speed="13.90" length="5.00" shape="28.25,808.65 28.44,810.01 29.03,810.98 29.99,811.56 31.35,811.75"/>
    </edge>
    <edge id=":0/2_9" function="internal">
        <lane id=":0/2_9_0" index="0" speed="13.90" length="22.70" shape="28.25,808.65 28.25,815.39 28.25,820.00 28.25,824.61 28.25,831.35"/>
        <lane id=":0/2_9_1" index="1" speed="13.90" length="22.70" shape="24.95,808.65 24.95,815.39 24.95,820.00 24.95,824.61 24.95,831.35"/>
        <lane id=":0/2_9_2" index="2" speed="13.90" length="22.70" shape="21.65,808.65 21.65,815.39 21.65,820.00 21.65,824.61 21.65,831.35"/>
    </edge>
    <edge id=":0/2_12" function="internal">
        <lane id=":0/2_12_0" index="0" speed="13.90" length="20.97" shape="21.65,808.65 20.84,814.34 18.40,818.40 14.34,820.84 8.65,821.65"/>
    </edge>
    <edge id=":0/2_13" function="internal">
        <lane id=":0/2_13_0" index="0" speed="13.90" length="5.00" shape="8.65,811.75 10.01,811.56 10.98,810.98 11.56,810.01 11.75,808.65"/>
    </edge>
    <edge id=":0/2_14" function="internal">
        <lane id=":0/2_14_0" index="0" speed="13.90" length="22.70" shape="8.65,815.05 15.39,815.05 20.00,815.05 24.61,815.05 31.35,815.05"/>
    </edge>
    <edge id=":0/2_15" function="internal">
        <lane id=":0/2_15_0" index="0" speed="13.90" length="20.97" shape="8.65,818.35 14.34,819.16 18.40,821.60 20.84,825.66 21.65,831.35"/>
    </edge>
    <edge id=":0/3_0" function="internal">
        <lane id=":0/3_0_0" index="0" speed="13.90" length="5.00" shape="11.75,1231.35 11.56,1229.99 10.98,1229.03 10.01,1228.44 8.65,1228.25"/>
    </edge>
    <edge id=":0/3_1" function="internal">
        <lane id=":0/3_1_0" index="0" speed="13.90" length="22.70" shape="11.75,1231.35 11.75,1224.61 11.75,1220.00 11.75,1215.39 11.75,1208.65"/>
        <lane id=":0/3_1_1" index="1" speed="13.90" length="22.70" shape="15.05,1231.35 15.05,1224.61 15.05,1220.00 15.05,1215.39 15.05,1208.65"/>
        <lane id=":0/3_1_2" index="2" speed="13.90" length="22.70" shape="18.35,1231.35 18.35,1224.61 18.35,1220.00 18.35,1215.39 18.35,1208.65"/>
    </edge>
    <edge id=":0/3_4" function="internal">
        <lane id=":0/3_4_0" index="0" speed="13.90" length="20.97" shape="18.35,1231.35 19.16,1225.66 21.60,1221.60 25.66,1219.16 31.35,1218.35"/>
    </edge>
    <edge id=":0/3_5" function="internal">
        <lane id=":0/3_5_0" index="0" speed="13.90" length="5.00" shape="31.35,1228.25 29.99,1228.44 29.03,1229.03 28.44,1229.99 28.25,1231.35"/>
    </edge>
    <edge id=":0/3_6" function="internal">
        <lane id=":0/3_6_0" index="0" speed="13.90" length="22.70" shape="31.35,1224.95 24.61,1224.95 20.00,1224.95 15.39,1224.95 8.65,1224.95"/>
    </edge>
    <edge id=":0/3_7" function="internal">
        <lane id=":0/3_7_0" index="0" speed="13.90" length="20.97" shape="31.35,1221.65 25.66,1220.84 21.60,1218.40 19.16,1214.34 18.35,1208.65"/>
    </edge>
    <edge id=":0/3_8" function="internal">
        <lane id=":0/3_8_0" index="0" speed="13.90" length="5.00" shape="28.25,1208.65 28.44,1210.01 29.03,1210.97 29.99,1211.56 31.35,1211.75"/>
    </edge>
    <edge id=":0/3_9" function="internal">
        <lane id=":0/3_9_0" index="0" speed="13.90" length="22.70" shape="28.25,1208.65 28.25,1215.39 28.25,1220.00 28.25,1224.61 28.25,1231.35"/>
        <lane id=":0/3_9_1" index="1" speed="13.90" length="22.70" shape="24.95,1208.65 24.95,1215.39 24.95,1220.00 24.95,1224.61 24.95,1231.35"/>
        <lane id=":0/3_9_2" index="2" speed="13.90" length="22.70" shape="21.65,1208.65 21.65,1215.39 21.65,1220.00 21.65,1224.61 21.65,1231.35"/>
    </edge>
    <edge id=":0/3_12" function="internal">
        <lane id=":0/3_12_0" index="0" speed="13.90" length="20.97" shape="21.65,1208.65 20.84,1214.34 18.40,1218.40 14.34,1220.84 8.65,1221.65"/>
    </edge>
    <edge id=":0/3_13" function="internal">
        <lane id=":0/3_13_0" index="0" speed="13.90" length="5.00" shape="8.65,1211.75 10.01,1211.56 10.98,1210.97 11.56,1210.01 11.75,1208.65"/>
    </edge>
    <edge id=":0/3_14" function="internal">
        <lane id=":0/3_14_0" index="0" speed="13.90" length="22.70" shape="8.65,1215.05 15.39,1215.05 20.00,1215.05 24.61,1215.05 31.35,1215.05"/>
    </edge>
    <edge id=":0/3_15" function="internal">
        <lane id=":0/3_15_0" index="0" speed="13.90" length="20.97" shape="8.65,1218.35 14.34,1219.16 18.40,1221.60 20.84,1225.66 21.65,1231.35"/>
    </edge>
    <edge id=":0/4_0" function="internal">
        <lane id=":0/4_0_0" index="0" speed="13.90" length="5.00" shape="11.75,1631.35 11.56,1629.99 10.98,1629.03 10.01,1628.44 8.65,1628.25"/>
    </edge>
    <edge id=":0/4_1" function="internal">
        <lane id=":0/4_1_0" index="0" speed="13.90" length="22.70" shape="11.75,1631.35 11.75,1624.61 11.75,1620.00 11.75,1615.39 11.75,1608.65"/>
        <lane id=":0/4_1_1" index="1" speed="13.90" length="22.70" shape="15.05,1631.35 15.05,1624.61 15.05,1620.00 15.05,1615.39 15.05,1608.65"/>
        <lane id=":0/4_1_2" index="2" speed="13.90" length="22.70" shape="18.35,1631.35 18.35,1624.61 18.35,1620.00 18.35,1615.39 18.35,1608.65"/>
    </edge>
    <edge id=":0/4_4" function="internal">
        <lane id=":0/4_4_0" index="0" speed="13.90" length="20.97" shape="18.35,1631.35 19.16,1625.66 21.60,1621.60 25.66,1619.16 31.35,1618.35"/>
    </edge>
    <edge id=":0/4_5" function="internal">
        <lane id=":0/4_5_0" index="0" speed="13.90" length="5.00" shape="31.35,1628.25 29.99,1628.44 29.03,1629.03 28.44,1629.99 28.25,1631.35"/>
    </edge>
    <edge id=":0/4_6" function="internal">
        <lane id=":0/4_6_0" index="0" speed="13.90" length="22.70" shape="31.35,1624.95 24.61,1624.95 20.00,1624.95 15.39,1624.95 8.65,1624.95"/>
    </edge>
    <edge id=":0/4_7" function="internal">
        <lane id=":0/4_7_0" index="0" speed="13.90" length="20.97" shape="31.35,1621.65 25.66,1620.84 21.60,1618.40 19.16,1614.34 18.35,1608.65"/>
    </edge>
    <edge id=":0/4_8" function="internal">
        <lane id=":0/4_8_0" index="0" speed="13.90" length="5.00" shape="28.25,1608.65 28.44,1610.01 29.03,1610.97 29.99,1611.56 31.35,1611.75"/>
    </edge>
    <edge id=":0/4_9" function="internal">
        <lane id=":0/4_9_0" index="0" speed="13.90" length="22.70" shape="28.25,1608.65 28.25,1615.39 28.25,1620.00 28.25,1624.61 28.25,1631.35"/>
        <lane id=":0/4_9_1" index="1" speed="13.90" length="22.70" shape="24.95,1608.65 24.95,1615.39 24.95,1620.00 24.95,1624.61 24.95,1631.35"/>
        <lane id=":0/4_9_2" index="2" speed="13.90" length="22.70" shape="21.65,1608.65 21.65,1615.39 21.65,1620.00 21.65,1624.61 21.65,1631.35"/>
    </edge>
    <edge id=":0/4_12" function="internal">
        <lane id=":0/4_12_0" index="0" speed="13.90" length="20.97" shape="21.65,1608.65 20.84,1614.34 18.40,1618.40 14.34,1620.84 8.65,1621.65"/>
    </edge>
    <edge id=":0/4_13" function="internal">
        <lane id=":0/4_13_0" index="0" speed="13.90" length="5.00" shape="8.65,1611.75 10.01,1611.56 10.98,1610.97 11.56,1610.01 11.75,1608.65"/>
    </edge>
    <edge id=":0/4_14" function="internal">
        <lane id=":0/4_14_0" index="0" speed="13.90" length="22.70" shape="8.65,1615.05 15.39,1615.05 20.00,1615.05 24.61,1615.05 31.35,1615.05"/>
    </edge>
    <edge id=":0/4_15" function="internal">
        <lane id=":0/4_15_0" index="0" speed="13.90" length="20.97" shape="8.65,1618.35 14.34,1619.16 18.40,1621.60 20.84,1625.66 21.65,1631.35"/>
    </edge>
    <edge id=":0/5_0" function="internal">
        <lane id=":0/5_0_0" index="0" speed="13.90" length="5.00" shape="11.75,2031.35 11.56,2029.99 10.98,2029.03 10.01,2028.44 8.65,2028.25"/>
    </edge>
    <edge id=":0/5_1" function="internal">
        <lane id=":0/5_1_0" index="0" speed="13.90" length="22.70" shape="11.75,2031.35 11.75,2024.61 11.75,2020.00 11.75,2015.39 11.75,2008.65"/>
        <lane id=":0/5_1_1" index="1" speed="13.90" length="22.70" shape="15.05,2031.35 15.05,2024.61 15.05,2020.00 15.05,2015.39 15.05,2008.65"/>
        <lane id=":0/5_1_2" index="2" speed="13.90" length="22.70" shape="18.35,2031.35 18.35,2024.61 18.35,2020.00 18.35,2015.39 18.35,2008.65"/>
    </edge>
    <edge id=":0/5_4" function="internal">
        <lane id=":0/5_4_0" index="0" speed="13.90" length="20.97" shape="18.35,2031.35 19.16,2025.66 21.60,2021.60 25.66,2019.16 31.35,2018.35"/>
    </edge>
    <edge id=":0/5_5" function="internal">
        <lane id=":0/5_5_0" index="0" speed="13.90" length="5.00" shape="31.35,2028.25 29.99,2028.44 29.03,2029.03 28.44,2029.99 28.25,2031.35"/>
    </edge>
    <edge id=":0/5_6" function="internal">
        <lane id=":0/5_6_0" index="0" speed="13.90" length="22.70" shape="31.35,2024.95 24.61,2024.95 20.00,2024.95 15.39,2024.95 8.65,2024.95"/>
    </edge>
    <edge id=":0/5_7" function="internal">
        <lane id=":0/5_7_0" index="0" speed="13.90" length="20.97" shape="31.35,2021.65 25.66,2020.84 21.60,2018.40 19.16,2014.34 18.35,2008.65"/>
    </edge>
    <edge id=":0/5_8" function="internal">
        <lane id=":0/5_8_0" index="0" speed="13.90" length="5.00" shape="28.25,2008.65 28.44,2010.01 29.03,2010.97 29.99,2011.56 31.35,2011.75"/>
    </edge>
    <edge id=":0/5_9" function="internal">
        <lane id=":0/5_9_0" index="0" speed="13.90" length="22.70" shape="28.25,2008.65 28.25,2015.39 28.25,2020.00 28.25,2024.61 28.25,2031.35"/>
        <lane id=":0/5_9_1" index="1" speed="13.90" length="22.70" shape="24.95,2008.65 24.95,2015.39 24.95,2020.00 24.95,2024.61 24.95,2031.35"/>
        <lane id=":0/5_9_2" index="2" speed="13.90" length="22.70" shape="21.65,2008.65 21.65,2015.39 21.65,2020.00 21.65,2024.61 21.65,2031.35"/>
    </edge>
    <edge id=":0/5_12" function="internal">
        <lane id=":0/5_12_0" index="0" speed="13.90" length="20.97" shape="21.65,2008.65 20.84,2014.34 18.40,2018.40 14.34,2020.84 8.65,2021.65"/>
    </edge>
    <edge id=":0/5_13" function="internal">
        <lane id=":0/5_13_0" index="0" speed="13.90" length="5.00" shape="8.65,2011.75 10.01,2011.56 10.98,2010.97 11.56,2010.01 11.75,2008.65"/>
    </edge>
    <edge id=":0/5_14" function="internal">
        <lane id=":0/5_14_0" index="0" speed="13.90" length="22.70" shape="8.65,2015.05 15.39,2015.05 20.00,2015.05 24.61,2015.05 31.35,2015.05"/>
    </edge>
    <edge id=":0/5_15" function="internal">
        <lane id=":0/5_15_0" index="0" speed="13.90" length="20.97" shape="8.65,2018.35 14.34,2019.16 18.40,2021.60 20.84,2025.66 21.65,2031.35"/>
    </edge>
    <edge id=":0/6_0" function="internal">
        <lane id=":0/6_0_0" index="0" speed="13.90" length="5.00" shape="11.75,2431.35 11.56,2429.99 10.98,2429.03 10.01,2428.44 8.65,2428.25"/>
    </edge>
    <edge id=":0/6_1" function="internal">
        <lane id=":0/6_1_0" index="0" speed="13.90" length="22.70" shape="11.75,2431.35 11.75,2424.61 11.75,2420.00 11.75,2415.39 11.75,2408.65"/>
        <lane id=":0/6_1_1" index="1" speed="13.90" length="22.70" shape="15.05,2431.35 15.05,2424.61 15.05,2420.00 15.05,2415.39 15.05,2408.65"/>
        <lane id=":0/6_1_2" index="2" speed="13.90" length="22.70" shape="18.35,2431.35 18.35,2424.61 18.35,2420.00 18.35,2415.39 18.35,2408.65"/>
    </edge>
    <edge id=":0/6_4" function="internal">
        <lane id=":0/6_4_0" index="0" speed="13.90" length="20.97" shape="18.35,2431.35 19.16,2425.66 21.60,2421.60 25.66,2419.16 31.35,2418.35"/>
    </edge>
    <edge id=":0/6_5" function="internal">
        <lane id=":0/6_5_0" index="0" speed="13.90" length="5.00" shape="31.35,2428.25 29.99,2428.44 29.03,2429.03 28.44,2429.99 28.25,2431.35"/>
    </edge>
    <edge id=":0/6_6" function="internal">
        <lane id=":0/6_6_0" index="0" speed="13.90" length="22.70" shape="31.35,2424.95 24.61,2424.95 20.00,2424.95 15.39,2424.95 8.65,2424.95"/>
    </edge>
    <edge id=":0/6_7" function="internal">
        <lane id=":0/6_7_0" index="0" speed="13.90" length="20.97" shape="31.35,2421.65 25.66,2420.84 21.60,2418.40 19.16,2414.34 18.35,2408.65"/>
    </edge>
    <edge id=":0/6_8" function="internal">
        <lane id=":0/6_8_0" index="0" speed="13.90" length="5.00" shape="28.25,2408.65 28.44,2410.01 29.03,2410.97 29.99,2411.56 31.35,2411.75"/>
    </edge>
    <edge id=":0/6_9" function="internal">
        <lane id=":0/6_9_0" index="0" speed="13.90" length="22.70" shape="28.25,2408.65 28.25,2415.39 28.25,2420.00 28.25,2424.61 28.25,2431.35"/>
        <lane id=":0/6_9_1" index="1" speed="13.90" length="22.70" shape="24.95,2408.65 24.95,2415.39 24.95,2420.00 24.95,2424.61 24.95,2431.35"/>
        <lane id=":0/6_9_2" index="2" speed="13.90" length="22.70" shape="21.65,2408.65 21.65,2415.39 21.65,2420.00 21.65,2424.61 21.65,2431.35"/>
    </edge>
    <edge id=":0/6_12" function="internal">
        <lane id=":0/6_12_0" index="0" speed="13.90" length="20.97" shape="21.65,2408.65 20.84,2414.34 18.40,2418.40 14.34,2420.84 8.65,2421.65"/>
    </edge>
    <edge id=":0/6_13" function="internal">
        <lane id=":0/6_13_0" index="0" speed="13.90" length="5.00" shape="8.65,2411.75 10.01,2411.56 10.98,2410.97 11.56,2410.01 11.75,2408.65"/>
    </edge>
    <edge id=":0/6_14" function="internal">
        <lane id=":0/6_14_0" index="0" speed="13.90" length="22.70" shape="8.65,2415.05 15.39,2415.05 20.00,2415.05 24.61,2415.05 31.35,2415.05"/>
    </edge>
    <edge id=":0/6_15" function="internal">
        <lane id=":0/6_15_0" index="0" speed="13.90" length="20.97" shape="8.65,2418.35 14.34,2419.16 18.40,2421.60 20.84,2425.66 21.65,2431.35"/>
    </edge>
    <edge id=":1/0_0" function="internal">
        <lane id=":1/0_0_0" index="0" speed="13.90" length="5.00" shape="411.75,31.35 411.56,29.99 410.98,29.02 410.01,28.44 408.65,28.25"/>
    </edge>
    <edge id=":1/0_1" function="internal">
        <lane id=":1/0_1_0" index="0" speed="13.90" length="22.70" shape="411.75,31.35 411.75,24.61 411.75,20.00 411.75,15.39 411.75,8.65"/>
        <lane id=":1/0_1_1" index="1" speed="13.90" length="22.70" shape="415.05,31.35 415.05,24.61 415.05,20.00 415.05,15.39 415.05,8.65"/>
        <lane id=":1/0_1_2" index="2" speed="13.90" length="22.70" shape="418.35,31.35 418.35,24.61 418.35,20.00 418.35,15.39 418.35,8.65"/>
    </edge>
    <edge id=":1/0_4" function="internal">
        <lane id=":1/0_4_0" index="0" speed="13.90" length="20.97" shape="418.35,31.35 419.16,25.66 421.60,21.60 425.66,19.16 431.35,18.35"/>
    </edge>
    <edge id=":1/0_5" function="internal">
        <lane id=":1/0_5_0" index="0" speed="13.90" length="5.00" shape="431.35,28.25 429.99,28.44 429.02,29.03 428.44,29.99 428.25,31.35"/>
    </edge>
    <edge id=":1/0_6" function="internal">
        <lane id=":1/0_6_0" index="0" speed="13.90" length="22.70" shape="431.35,24.95 424.61,24.95 420.00,24.95 415.39,24.95 408.65,24.95"/>
    </edge>
    <edge id=":1/0_7" function="internal">
        <lane id=":1/0_7_0" index="0" speed="13.90" length="20.97" shape="431.35,21.65 425.66,20.84 421.60,18.40 419.16,14.34 418.35,8.65"/>
    </edge>
    <edge id=":1/0_8" function="internal">
        <lane id=":1/0_8_0" index="0" speed="13.90" length="5.00" shape="428.25,8.65 428.44,10.01 429.02,10.98 429.99,11.56 431.35,11.75"/>
    </edge>
    <edge id=":1/0_9" function="internal">
        <lane id=":1/0_9_0" index="0" speed="13.90" length="22.70" shape="428.25,8.65 428.25,15.39 428.25,20.00 428.25,24.61 428.25,31.35"/>
        <lane id=":1/0_9_1" index="1" speed="13.90" length="22.70" shape="424.95,8.65 424.95,15.39 424.95,20.00 424.95,24.61 424.95,31.35"/>
        <lane id=":1/0_9_2" index="2" speed="13.90" length="22.70" shape="421.65,8.65 421.65,15.39 421.65,20.00 421.65,24.61 421.65,31.35"/>
    </edge>
    <edge id=":1/0_12" function="internal">
        <lane id=":1/0_12_0" index="0" speed="13.90" length="20.97" shape="421.65,8.65 420.84,14.34 418.40,18.40 414.34,20.84 408.65,21.65"/>
    </edge>
    <edge id=":1/0_13" function="internal">
        <lane id=":1/0_13_0" index="0" speed="13.90" length="5.00" shape="408.65,11.75 410.01,11.56 410.98,10.98 411.56,10.01 411.75,8.65"/>
    </edge>
    <edge id=":1/0_14" function="internal">
        <lane id=":1/0_14_0" index="0" speed="13.90" length="22.70" shape="408.65,15.05 415.39,15.05 420.00,15.05 424.61,15.05 431.35,15.05"/>
    </edge>
    <edge id=":1/0_15" function="internal">
        <lane id=":1/0_15_0" index="0" speed="13.90" length="20.97" shape="408.65,18.35 414.34,19.16 418.40,21.60 420.84,25.66 421.65,31.35"/>
    </edge>
    <edge id=":1/1_0" function="internal">
        <lane id=":1/1_0_0" index="0" speed="13.90" length="5.00" shape="411.75,431.35 411.56,429.99 410.98,429.02 410.01,428.44 408.65,428.25"/>
    </edge>
    <edge id=":1/1_1" function="internal">
        <lane id=":1/1_1_0" index="0" speed="13.90" length="22.70" shape="411.75,431.35 411.75,424.61 411.75,420.00 411.75,415.39 411.75,408.65"/>
        <lane id=":1/1_1_1" index="1" speed="13.90" length="22.70" shape="415.05,431.35 415.05,424.61 415.05,420.00 415.05,415.39 415.05,408.65"/>
        <lane id=":1/1_1_2" index="2" speed="13.90" length="22.70" shape="418.35,431.35 418.35,424.61 418.35,420.00 418.35,415.39 418.35,408.65"/>
    </edge>
    <edge id=":1/1_4" function="internal">
        <lane id=":1/1_4_0" index="0" speed="13.90" length="20.97" shape="418.35,431.35 419.16,425.66 421.60,421.60 425.66,419.16 431.35,418.35"/>
    </edge>
    <edge id=":1/1_5" function="internal">
        <lane id=":1/1_5_0" index="0" speed="13.90" length="5.00" shape="431.35,428.25 429.99,428.44 429.02,429.02 428.44,429.99 428.25,431.35"/>
    </edge>
    <edge id=":1/1_6" function="internal">
        <lane id=":1/1_6_0" index="0" speed="13.90" length="22.70" shape="431.35,424.95 424.61,424.95 420.00,424.95 415.39,424.95 408.65,424.95"/>
    </edge>
    <edge id=":1/1_7" function="internal">
        <lane id=":1/1_7_0" index="0" speed="13.90" length="20.97" shape="431.35,421.65 425.66,420.84 421.60,418.40 419.16,414.34 418.35,408.65"/>
    </edge>
    <edge id=":1/1_8" function="internal">
        <lane id=":1/1_8_0" index="0" speed="13.90" length="5.00" shape="428.25,408.65 428.44,410.01 429.02,410.98 429.99,411.56 431.35,411.75"/>
    </edge>
    <edge id=":1/1_9" function="internal">
        <lane id=":1/1_9_0" index="0" speed="13.90" length="22.70" shape="428.25,408.65 428.25,415.39 428.25,420.00 428.25,424.61 428.25,431.35"/>
        <lane id=":1/1_9_1" index="1" speed="13.90" length="22.70" shape="424.95,408.65 424.95,415.39 424.95,420.00 424.95,424.61 424.95,431.35"/>
        <lane id=":1/1_9_2" index="2" speed="13.90" length="22.70" shape="421.65,408.65 421.65,415.39 421.65,420.00 421.65,424.61 421.65,431.35"/>
    </edge>
    <edge id=":1/1_12" function="internal">
        <lane id=":1/1_12_0" index="0" speed="13.90" length="20.97" shape="421.65,408.65 420.84,414.34 418.40,418.40 414.34,420.84 408.65,421.65"/>
    </edge>
    <edge id=":1/1_13" function="internal">
        <lane id=":1/1_13_0" index="0" speed="13.90" length="5.00" shape="408.65,411.75 410.01,411.56 410.98,410.98 411.56,410.01 411.75,408.65"/>
    </edge>
    <edge id=":1/1_14" function="internal">
        <lane id=":1/1_14_0" index="0" speed="13.90" length="22.70" shape="408.65,415.05 415.39,415.05 420.00,415.05 424.61,415.05 431.35,415.05"/>
    </edge>
    <edge id=":1/1_15" function="internal">
        <lane id=":1/1_15_0" index="0" speed="13.90" length="20.97" shape="408.65,418.35 414.34,419.16 418.40,421.60 420.84,425.66 421.65,431.35"/>
    </edge>
    <edge id=":1/2_0" function="internal">
        <lane id=":1/2_0_0" index="0" speed="13.90" length="5.00" shape="411.75,831.35 411.56,829.99 410.98,829.02 410.01,828.44 408.65,828.25"/>
    </edge>
    <edge id=":1/2_1" function="internal">
        <lane id=":1/2_1_0" index="0" speed="13.90" length="22.70" shape="411.75,831.35 411.75,824.61 411.75,820.00 411.75,815.39 411.75,808.65"/>
        <lane id=":1/2_1_1" index="1" speed="13.90" length="22.70" shape="415.05,831.35 415.05,824.61 415.05,820.00 415.05,815.39 415.05,808.65"/>
        <lane id=":1/2_1_2" index="2" speed="13.90" length="22.70" shape="418.35,831.35 418.35,824.61 418.35,820.00 418.35,815.39 418.35,808.65"/>
    </edge>
    <edge id=":1/2_4" function="internal">
        <lane id=":1/2_4_0" index="0" speed="13.90" length="20.97" shape="418.35,831.35 419.16,825.66 421.60,821.60 425.66,819.16 431.35,818.35"/>
    </edge>
    <edge id=":1/2_5" function="internal">
        <lane id=":1/2_5_0" index="0" speed="13.90" length="5.00" shape="431.35,828.25 429.99,828.44 429.02,829.02 428.44,829.99 428.25,831.35"/>
    </edge>
    <edge id=":1/2_6" function="internal">
        <lane id=":1/2_6_0" index="0" speed="13.90" length="22.70" shape="431.35,824.95 424.61,824.95 420.00,824.95 415.39,824.95 408.65,824.95"/>
    </edge>
    <edge id=":1/2_7" function="internal">
        <lane id=":1/2_7_0" index="0" speed="13.90" length="20.97" shape="431.35,821.65 425.66,820.84 421.60,818.40 419.16,814.34 418.35,808.65"/>
    </edge>
    <edge id=":1/2_8" function="internal">
        <lane id=":1/2_8_0" index="0" speed="13.90" length="5.00" shape="428.25,808.65 428.44,810.01 429.02,810.98 429.99,811.56 431.35,811.75"/>
    </edge>
    <edge id=":1/2_9" function="internal">
        <lane id=":1/2_9_0" index="0" speed="13.90" length="22.70" shape="428.25,808.65 428.25,815.39 428.25,820.00 428.25,824.61 428.25,831.35"/>
        <lane id=":1/2_9_1" index="1" speed="13.90" length="22.70" shape="424.95,808.65 424.95,815.39 424.95,820.00 424.95,824.61 424.95,831.35"/>